#======================================================================

# CRYSTAL DATA

#----------------------------------------------------------------------

data_VESTA_phase_1


_pd_phase_name                         MOF
_cell_length_a                         14.56500
_cell_length_b                         18.85600
_cell_length_c                         15.85500
_cell_angle_alpha                      89.60200
_cell_angle_beta                       89.99600
_cell_angle_gamma                      90.11400
_symmetry_space_group_name_H-M         "P 1"
_symmetry_Int_Tables_number            1

loop_
_symmetry_equiv_pos_as_xyz
   "x, y, z"

loop_
   _atom_site_label
   _atom_site_occupancy
   _atom_site_fract_x
   _atom_site_fract_y
   _atom_site_fract_z
   _atom_site_adp_type
   _atom_site_B_iso_or_equiv
   _atom_site_label
    H   1.0     0.652154     0.966792     0.508271  Biso 1.000000     H
    H   1.0     0.366632     0.135750     0.297711  Biso 1.000000     H
    H   1.0     0.340489     0.256864     0.235694  Biso 1.000000     H
    H   1.0     0.612088     0.254141     0.129306  Biso 1.000000     H
    H   1.0     0.638349     0.133717     0.191306  Biso 1.000000     H
    H   1.0     0.889156     0.988790     0.617383  Biso 1.000000     H
    H   1.0     0.947320    -0.016630     0.351919  Biso 1.000000     H
    H   1.0     0.348701     0.466180     0.992201  Biso 1.000000     H
    H   1.0     0.633192     0.637476     0.202169  Biso 1.000000     H
    H   1.0     0.660150     0.757418     0.265362  Biso 1.000000     H
    H   1.0     0.387840     0.753570     0.370281  Biso 1.000000     H
    H   1.0     0.360652     0.634438     0.306788  Biso 1.000000     H
    H   1.0     0.111659     0.490122     0.881911  Biso 1.000000     H
    H   1.0     0.052759     0.482266     0.147316  Biso 1.000000     H
    H   1.0     0.351316     0.036436     0.490256  Biso 1.000000     H
    H   1.0     0.635202     0.867320     0.702897  Biso 1.000000     H
    H   1.0     0.660444     0.746173     0.765040  Biso 1.000000     H
    H   1.0     0.387885     0.749305     0.869336  Biso 1.000000     H
    H   1.0     0.362502     0.869748     0.807108  Biso 1.000000     H
    H   1.0     0.111843     0.014373     0.381083  Biso 1.000000     H
    H   1.0     0.053661     0.000000     0.646528  Biso 1.000000     H
    H   1.0     0.651390     0.536915     0.007599  Biso 1.000000     H
    H   1.0     0.366904     0.365062     0.796985  Biso 1.000000     H
    H   1.0     0.340499     0.245331     0.733085  Biso 1.000000     H
    H   1.0     0.613015     0.250139     0.628699  Biso 1.000000     H
    H   1.0     0.639556     0.369123     0.692633  Biso 1.000000     H
    H   1.0     0.888458     0.513209     0.117661  Biso 1.000000     H
    H   1.0     0.947394     0.521108     0.852280  Biso 1.000000     H
    H   1.0     0.849130     0.036775     0.006316  Biso 1.000000     H
    H   1.0     0.133768     0.865731     0.795321  Biso 1.000000     H
    H   1.0     0.160140     0.745883     0.731830  Biso 1.000000     H
    H   1.0     0.887076     0.749174     0.628627  Biso 1.000000     H
    H   1.0     0.860539     0.868260     0.692255  Biso 1.000000     H
    H   1.0     0.611825     0.013924     0.116157  Biso 1.000000     H
    H   1.0     0.552165     0.000000     0.850904  Biso 1.000000     H
    H   1.0     0.148929     0.536437     0.490284  Biso 1.000000     H
    H   1.0     0.864916     0.366533     0.702198  Biso 1.000000     H
    H   1.0     0.840154     0.244930     0.763506  Biso 1.000000     H
    H   1.0     0.112039     0.249601     0.869229  Biso 1.000000     H
    H   1.0     0.137046     0.370417     0.807638  Biso 1.000000     H
    H   1.0     0.388457     0.514053     0.381546  Biso 1.000000     H
    H   1.0     0.446620     0.520097     0.646979  Biso 1.000000     H
    H   1.0     0.150578     0.966012     0.991600  Biso 1.000000     H
    H   1.0     0.866252     0.137655     0.201043  Biso 1.000000     H
    H   1.0     0.839511     0.257359     0.264674  Biso 1.000000     H
    H   1.0     0.111919     0.253847     0.369364  Biso 1.000000     H
    H   1.0     0.138959     0.135026     0.305247  Biso 1.000000     H
    H   1.0     0.387878     0.989656     0.881141  Biso 1.000000     H
    H   1.0     0.447513    -0.017056     0.146424  Biso 1.000000     H
    H   1.0     0.847683     0.466540     0.508367  Biso 1.000000     H
    H   1.0     0.133200     0.636528     0.298022  Biso 1.000000     H
    H   1.0     0.159130     0.757746     0.235999  Biso 1.000000     H
    H   1.0     0.887761     0.753719     0.129141  Biso 1.000000     H
    H   1.0     0.861708     0.633194     0.191129  Biso 1.000000     H
    H   1.0     0.610953     0.489175     0.617948  Biso 1.000000     H
    H   1.0     0.552800     0.483076     0.352503  Biso 1.000000     H
    C   1.0     0.523985     0.059550     0.292839  Biso 1.000000     C
    C   1.0     0.504425     0.128170     0.249129  Biso 1.000000     C
    C   1.0     0.419694     0.162125     0.260539  Biso 1.000000     C
    C   1.0     0.405245     0.229289     0.226207  Biso 1.000000     C
    C   1.0     0.475249     0.262959     0.179938  Biso 1.000000     C
    C   1.0     0.558792     0.227868     0.166183  Biso 1.000000     C
    C   1.0     0.573365     0.160937     0.200661  Biso 1.000000     C
    C   1.0     0.462726     0.336851     0.147863  Biso 1.000000     C
    C   1.0     0.810249     0.966966     0.466210  Biso 1.000000     C
    C   1.0     0.908807     0.983963     0.482943  Biso 1.000000     C
    C   1.0     0.938443     0.994311     0.566129  Biso 1.000000     C
    C   1.0     0.971431    -0.008621     0.416149  Biso 1.000000     C
    C   1.0     0.475525     0.561329     0.206177  Biso 1.000000     C
    C   1.0     0.495026     0.629488     0.249896  Biso 1.000000     C
    C   1.0     0.580156     0.663400     0.239216  Biso 1.000000     C
    C   1.0     0.595057     0.729866     0.274243  Biso 1.000000     C
    C   1.0     0.525148     0.762787     0.320609  Biso 1.000000     C
    C   1.0     0.441079     0.727790     0.333437  Biso 1.000000     C
    C   1.0     0.426003     0.661603     0.298115  Biso 1.000000     C
    C   1.0     0.538408     0.835889     0.353668  Biso 1.000000     C
    C   1.0     0.190188     0.467044     0.033521  Biso 1.000000     C
    C   1.0     0.091706     0.484079     0.016392  Biso 1.000000     C
    C   1.0     0.062290     0.495109     0.933070  Biso 1.000000     C
    C   1.0     0.028887     0.490822     0.082986  Biso 1.000000     C
    C   1.0     0.478081     0.943877     0.706497  Biso 1.000000     C
    C   1.0     0.496960     0.875143     0.750337  Biso 1.000000     C
    C   1.0     0.581703     0.841027     0.739613  Biso 1.000000     C
    C   1.0     0.595660     0.773830     0.774036  Biso 1.000000     C
    C   1.0     0.525174     0.740240     0.819788  Biso 1.000000     C
    C   1.0     0.441599     0.775475     0.832866  Biso 1.000000     C
    C   1.0     0.427509     0.842438     0.798246  Biso 1.000000     C
    C   1.0     0.537383     0.666325     0.851970  Biso 1.000000     C
    C   1.0     0.190778     0.036021     0.532380  Biso 1.000000     C
    C   1.0     0.092192     0.019124     0.515513  Biso 1.000000     C
    C   1.0     0.062541     0.008820     0.432326  Biso 1.000000     C
    C   1.0     0.029551     0.000000     0.582297  Biso 1.000000     C
    C   1.0     0.524464     0.441677     0.793552  Biso 1.000000     C
    C   1.0     0.505128     0.373600     0.749501  Biso 1.000000     C
    C   1.0     0.420123     0.339422     0.759874  Biso 1.000000     C
    C   1.0     0.405515     0.273047     0.724435  Biso 1.000000     C
    C   1.0     0.475631     0.240388     0.678057  Biso 1.000000     C
    C   1.0     0.559572     0.275661     0.665551  Biso 1.000000     C
    C   1.0     0.574311     0.341779     0.701173  Biso 1.000000     C
    C   1.0     0.462850     0.167265     0.644719  Biso 1.000000     C
    C   1.0     0.809890     0.536135     0.966160  Biso 1.000000     C
    C   1.0     0.908425     0.519230     0.983208  Biso 1.000000     C
    C   1.0     0.937852     0.508227     0.066526  Biso 1.000000     C
    C   1.0     0.971251     0.512528     0.916612  Biso 1.000000     C
    C   1.0     0.975978     0.941393     0.792465  Biso 1.000000     C
    C   1.0     0.995248     0.873419     0.748434  Biso 1.000000     C
    C   1.0     0.080449     0.839721     0.758549  Biso 1.000000     C
    C   1.0     0.095035     0.773309     0.723369  Biso 1.000000     C
    C   1.0     0.024725     0.740231     0.677484  Biso 1.000000     C
    C   1.0     0.940615     0.775064     0.665146  Biso 1.000000     C
    C   1.0     0.925882     0.841205     0.700545  Biso 1.000000     C
    C   1.0     0.037399     0.667075     0.644481  Biso 1.000000     C
    C   1.0     0.690047     0.036188     0.964363  Biso 1.000000     C
    C   1.0     0.591485     0.019340     0.981726  Biso 1.000000     C
    C   1.0     0.562254     0.008676     0.065189  Biso 1.000000     C
    C   1.0     0.528449     0.000000     0.915336  Biso 1.000000     C
    C   1.0     0.021756     0.443900     0.706581  Biso 1.000000     C
    C   1.0     0.002864     0.375069     0.750280  Biso 1.000000     C
    C   1.0     0.918360     0.340450     0.739021  Biso 1.000000     C
    C   1.0     0.904685     0.273016     0.772978  Biso 1.000000     C
    C   1.0     0.975156     0.239760     0.818852  Biso 1.000000     C
    C   1.0     0.058399     0.275543     0.832613  Biso 1.000000     C
    C   1.0     0.072250     0.342710     0.798381  Biso 1.000000     C
    C   1.0     0.963292     0.165629     0.850457  Biso 1.000000     C
    C   1.0     0.309542     0.536055     0.532697  Biso 1.000000     C
    C   1.0     0.408081     0.519164     0.515959  Biso 1.000000     C
    C   1.0     0.437707     0.508661     0.432817  Biso 1.000000     C
    C   1.0     0.470687     0.511958     0.582768  Biso 1.000000     C
    C   1.0     0.023713     0.061746     0.204674  Biso 1.000000     C
    C   1.0     0.004502     0.129851     0.248545  Biso 1.000000     C
    C   1.0     0.919377     0.163601     0.238114  Biso 1.000000     C
    C   1.0     0.904582     0.229944     0.273405  Biso 1.000000     C
    C   1.0     0.974534     0.262907     0.319886  Biso 1.000000     C
    C   1.0     0.058613     0.228074     0.332438  Biso 1.000000     C
    C   1.0     0.073611     0.162040     0.296783  Biso 1.000000     C
    C   1.0     0.961353     0.335866     0.353381  Biso 1.000000     C
    C   1.0     0.309703     0.967074     0.033002  Biso 1.000000     C
    C   1.0     0.408201     0.984184     0.015588  Biso 1.000000     C
    C   1.0     0.437414     0.994913     0.932135  Biso 1.000000     C
    C   1.0     0.471223    -0.008740     0.081985  Biso 1.000000     C
    C   1.0     0.976009     0.559571     0.292874  Biso 1.000000     C
    C   1.0     0.995523     0.628286     0.249216  Biso 1.000000     C
    C   1.0     0.080145     0.662651     0.260762  Biso 1.000000     C
    C   1.0     0.094465     0.729872     0.226414  Biso 1.000000     C
    C   1.0     0.024472     0.763198     0.180002  Biso 1.000000     C
    C   1.0     0.941041     0.727709     0.166132  Biso 1.000000     C
    C   1.0     0.926589     0.660722     0.200627  Biso 1.000000     C
    C   1.0     0.036991     0.837106     0.147837  Biso 1.000000     C
    C   1.0     0.689774     0.466947     0.466732  Biso 1.000000     C
    C   1.0     0.591323     0.484006     0.483509  Biso 1.000000     C
    C   1.0     0.561718     0.494554     0.566660  Biso 1.000000     C
    C   1.0     0.528727     0.491243     0.416705  Biso 1.000000     C
    O   1.0     0.596814     0.991454     0.480833  Biso 1.000000     O
    O   1.0     0.460157     0.031142     0.336700  Biso 1.000000     O
    O   1.0     0.605383     0.034740     0.284660  Biso 1.000000     O
    O   1.0     0.531023     0.364188     0.107537  Biso 1.000000     O
    O   1.0     0.387022     0.367863     0.163185  Biso 1.000000     O
    O   1.0     0.785303     0.972002     0.387502  Biso 1.000000     O
    O   1.0     0.757693     0.950434     0.526365  Biso 1.000000     O
    O   1.0     0.404190     0.490871     0.019210  Biso 1.000000     O
    O   1.0     0.539699     0.533696     0.162700  Biso 1.000000     O
    O   1.0     0.394153     0.536117     0.214289  Biso 1.000000     O
    O   1.0     0.471303     0.861978     0.396141  Biso 1.000000     O
    O   1.0     0.613519     0.867687     0.337052  Biso 1.000000     O
    O   1.0     0.215048     0.472033     0.112185  Biso 1.000000     O
    O   1.0     0.242715     0.450513    -0.026307  Biso 1.000000     O
    O   1.0     0.405977     0.011882     0.518421  Biso 1.000000     O
    O   1.0     0.542593     0.971972     0.663116  Biso 1.000000     O
    O   1.0     0.396814     0.969030     0.714160  Biso 1.000000     O
    O   1.0     0.469006     0.639038     0.892255  Biso 1.000000     O
    O   1.0     0.613044     0.635216     0.836753  Biso 1.000000     O
    O   1.0     0.215365     0.030919     0.611246  Biso 1.000000     O
    O   1.0     0.243595     0.052500     0.472458  Biso 1.000000     O
    O   1.0     0.595856     0.512279     0.980591  Biso 1.000000     O
    O   1.0     0.460292     0.469215     0.837138  Biso 1.000000     O
    O   1.0     0.605829     0.466941     0.785563  Biso 1.000000     O
    O   1.0     0.531105     0.141055     0.603845  Biso 1.000000     O
    O   1.0     0.387185     0.135661     0.659527  Biso 1.000000     O
    O   1.0     0.784961     0.531115     0.887521  Biso 1.000000     O
    O   1.0     0.757391     0.552568     0.000000  Biso 1.000000     O
    O   1.0     0.904372     0.011975     0.979415  Biso 1.000000     O
    O   1.0     0.040744     0.969246     0.835339  Biso 1.000000     O
    O   1.0     0.894497     0.966197     0.785326  Biso 1.000000     O
    O   1.0     0.969015     0.640661     0.603772  Biso 1.000000     O
    O   1.0     0.112990     0.635655     0.659392  Biso 1.000000     O
    O   1.0     0.714824     0.031011     0.885653  Biso 1.000000     O
    O   1.0     0.742769     0.052722     0.000000  Biso 1.000000     O
    O   1.0     0.094120     0.511880     0.518384  Biso 1.000000     O
    O   1.0     0.957309     0.471868     0.663180  Biso 1.000000     O
    O   1.0     0.103061     0.469202     0.714284  Biso 1.000000     O
    O   1.0     0.031003     0.138968     0.892051  Biso 1.000000     O
    O   1.0     0.888517     0.133673     0.833433  Biso 1.000000     O
    O   1.0     0.284741     0.530937     0.611506  Biso 1.000000     O
    O   1.0     0.256919     0.552553     0.472719  Biso 1.000000     O
    O   1.0     0.095303     0.990897     0.018310  Biso 1.000000     O
    O   1.0     0.958894     0.033590     0.162251  Biso 1.000000     O
    O   1.0     0.105336     0.037092     0.211671  Biso 1.000000     O
    O   1.0     0.028493     0.361940     0.396026  Biso 1.000000     O
    O   1.0     0.886302     0.367587     0.336966  Biso 1.000000     O
    O   1.0     0.285007     0.972164     0.111708  Biso 1.000000     O
    O   1.0     0.256982     0.950368    -0.026643  Biso 1.000000     O
    O   1.0     0.903172     0.491171     0.480841  Biso 1.000000     O
    O   1.0     0.039832     0.531270     0.336676  Biso 1.000000     O
    O   1.0     0.894583     0.534561     0.284686  Biso 1.000000     O
    O   1.0     0.968811     0.864276     0.107429  Biso 1.000000     O
    O   1.0     0.112757     0.868278     0.163212  Biso 1.000000     O
    O   1.0     0.714711     0.471948     0.388012  Biso 1.000000     O
    O   1.0     0.742268     0.450372     0.526848  Biso 1.000000     O
   Zn   1.0     0.472117     0.959824     0.429923  Biso 1.000000    Zn
   Zn   1.0     0.656534     0.965757     0.363408  Biso 1.000000    Zn
   Zn   1.0     0.530730     0.461743     0.071022  Biso 1.000000    Zn
   Zn   1.0     0.343875     0.466064     0.136763  Biso 1.000000    Zn
   Zn   1.0     0.531415     0.043251     0.569965  Biso 1.000000    Zn
   Zn   1.0     0.344311     0.037149     0.634223  Biso 1.000000    Zn
   Zn   1.0     0.469239     0.541412     0.928666  Biso 1.000000    Zn
   Zn   1.0     0.656087     0.536991     0.863111  Biso 1.000000    Zn
   Zn   1.0     0.030990     0.040777     0.926495  Biso 1.000000    Zn
   Zn   1.0     0.843940     0.036543     0.862449  Biso 1.000000    Zn
   Zn   1.0     0.968606     0.543036     0.569911  Biso 1.000000    Zn
   Zn   1.0     0.155767     0.537205     0.634199  Biso 1.000000    Zn
   Zn   1.0     0.969140     0.961932     0.070599  Biso 1.000000    Zn
   Zn   1.0     0.156097     0.966190     0.135955  Biso 1.000000    Zn
   Zn   1.0     0.027858     0.459792     0.429863  Biso 1.000000    Zn
   Zn   1.0     0.843372     0.465581     0.363509  Biso 1.000000    Zn