#======================================================================

# CRYSTAL DATA

#----------------------------------------------------------------------

data_VESTA_phase_1


_pd_phase_name                         MOF
_cell_length_a                         23.44200
_cell_length_b                         23.97400
_cell_length_c                         14.05900
_cell_angle_alpha                      112.34500
_cell_angle_beta                       89.89600
_cell_angle_gamma                      118.64400
_symmetry_space_group_name_H-M         "P 1"
_symmetry_Int_Tables_number            1

loop_
_symmetry_equiv_pos_as_xyz
   "x, y, z"

loop_
   _atom_site_label
   _atom_site_occupancy
   _atom_site_fract_x
   _atom_site_fract_y
   _atom_site_fract_z
   _atom_site_adp_type
   _atom_site_B_iso_or_equiv
   _atom_site_type_symbol
    H   1.0     0.268893     0.220374     0.165518  Biso 1.000000     H
    H   1.0     0.268968     0.720434     0.165575  Biso 1.000000     H
    H   1.0     0.768957     0.220348     0.165509  Biso 1.000000     H
    H   1.0     0.769033     0.720408     0.165572  Biso 1.000000     H
    H   1.0     0.077797     0.103015     0.954578  Biso 1.000000     H
    H   1.0     0.077850     0.603051     0.954684  Biso 1.000000     H
    H   1.0     0.577830     0.102992     0.954655  Biso 1.000000     H
    H   1.0     0.577886     0.603031     0.954762  Biso 1.000000     H
    H   1.0     0.099350     0.004783     0.858179  Biso 1.000000     H
    H   1.0     0.099412     0.504827     0.858266  Biso 1.000000     H
    H   1.0     0.599372     0.004757     0.858210  Biso 1.000000     H
    H   1.0     0.599437     0.504803     0.858299  Biso 1.000000     H
    H   1.0     0.198825     0.280769     0.534284  Biso 1.000000     H
    H   1.0     0.198841     0.780751     0.534271  Biso 1.000000     H
    H   1.0     0.698831     0.280736     0.534228  Biso 1.000000     H
    H   1.0     0.698849     0.780720     0.534215  Biso 1.000000     H
    H   1.0     0.281027     0.496253     0.735981  Biso 1.000000     H
    H   1.0     0.281014     0.996229     0.735977  Biso 1.000000     H
    H   1.0     0.781031     0.496219     0.735933  Biso 1.000000     H
    H   1.0     0.781024     0.996197     0.735930  Biso 1.000000     H
    H   1.0     0.346531     0.484935     0.570369  Biso 1.000000     H
    H   1.0     0.346539     0.984928     0.570389  Biso 1.000000     H
    H   1.0     0.846547     0.484903     0.570337  Biso 1.000000     H
    H   1.0     0.846561     0.984898     0.570358  Biso 1.000000     H
    H   1.0     0.308145     0.371332     0.383490  Biso 1.000000     H
    H   1.0     0.308187     0.871344     0.383522  Biso 1.000000     H
    H   1.0     0.808169     0.371300     0.383455  Biso 1.000000     H
    H   1.0     0.808215     0.871313     0.383488  Biso 1.000000     H
    H   1.0     0.262391     0.288274     0.386511  Biso 1.000000     H
    H   1.0     0.262414     0.788277     0.386505  Biso 1.000000     H
    H   1.0     0.762421     0.288244     0.386481  Biso 1.000000     H
    H   1.0     0.762448     0.788247     0.386476  Biso 1.000000     H
    H   1.0     0.319129     0.250326     0.479079  Biso 1.000000     H
    H   1.0     0.319118     0.750288     0.479041  Biso 1.000000     H
    H   1.0     0.819165     0.250319     0.479089  Biso 1.000000     H
    H   1.0     0.819156     0.750281     0.479053  Biso 1.000000     H
    H   1.0     0.425189     0.263238     0.542672  Biso 1.000000     H
    H   1.0     0.425160     0.763173     0.542654  Biso 1.000000     H
    H   1.0     0.925231     0.263258     0.542725  Biso 1.000000     H
    H   1.0     0.925204     0.763191     0.542708  Biso 1.000000     H
    H   1.0     0.034972     0.462741     0.526737  Biso 1.000000     H
    H   1.0     0.034996     0.962710     0.526844  Biso 1.000000     H
    H   1.0     0.534959     0.462722     0.526693  Biso 1.000000     H
    H   1.0     0.534980     0.962695     0.526801  Biso 1.000000     H
    H   1.0     0.429172     0.449775     0.462795  Biso 1.000000     H
    H   1.0     0.429211     0.949776     0.462886  Biso 1.000000     H
    H   1.0     0.929189     0.449766     0.462795  Biso 1.000000     H
    H   1.0     0.929232     0.949765     0.462885  Biso 1.000000     H
    H   1.0     0.046036     0.342058     0.623506  Biso 1.000000     H
    H   1.0     0.046002     0.841967     0.623528  Biso 1.000000     H
    H   1.0     0.546008     0.342031     0.623457  Biso 1.000000     H
    H   1.0     0.545972     0.841945     0.623483  Biso 1.000000     H
    H   1.0     0.091174     0.425847     0.622710  Biso 1.000000     H
    H   1.0     0.091159     0.925776     0.622808  Biso 1.000000     H
    H   1.0     0.591151     0.425818     0.622658  Biso 1.000000     H
    H   1.0     0.591133     0.925751     0.622756  Biso 1.000000     H
    H   1.0     0.157667     0.436710     0.479916  Biso 1.000000     H
    H   1.0     0.157676     0.936690     0.480044  Biso 1.000000     H
    H   1.0     0.657668     0.436678     0.479899  Biso 1.000000     H
    H   1.0     0.657677     0.936660     0.480032  Biso 1.000000     H
    H   1.0     0.077833     0.223116     0.270418  Biso 1.000000     H
    H   1.0     0.077857     0.723118     0.270440  Biso 1.000000     H
    H   1.0     0.577833     0.223084     0.270400  Biso 1.000000     H
    H   1.0     0.577857     0.723088     0.270429  Biso 1.000000     H
    H   1.0     0.009605     0.230176     0.433223  Biso 1.000000     H
    H   1.0     0.009603     0.730128     0.433217  Biso 1.000000     H
    H   1.0     0.509571     0.230146     0.433163  Biso 1.000000     H
    H   1.0     0.509566     0.730101     0.433160  Biso 1.000000     H
    H   1.0     0.312137     0.086848     0.000000  Biso 1.000000     H
    H   1.0     0.312217     0.586913     0.000000  Biso 1.000000     H
    H   1.0     0.812188     0.086820     0.000000  Biso 1.000000     H
    H   1.0     0.812267     0.586883     0.000000  Biso 1.000000     H
    H   1.0     0.340670     0.172010     0.133066  Biso 1.000000     H
    H   1.0     0.340756     0.672082     0.133095  Biso 1.000000     H
    H   1.0     0.840738     0.171981     0.132972  Biso 1.000000     H
    H   1.0     0.840823     0.672051     0.133008  Biso 1.000000     H
    H   1.0     0.452163     0.220624     0.668671  Biso 1.000000     H
    H   1.0     0.452179     0.720528     0.668668  Biso 1.000000     H
    H   1.0     0.952164     0.220615     0.668694  Biso 1.000000     H
    H   1.0     0.952177     0.720512     0.668696  Biso 1.000000     H
    H   1.0     0.023991     0.101042     0.450233  Biso 1.000000     H
    H   1.0     0.023998     0.601007     0.450070  Biso 1.000000     H
    H   1.0     0.523976     0.101024     0.450204  Biso 1.000000     H
    H   1.0     0.523983     0.600988     0.450049  Biso 1.000000     H
    H   1.0     0.405345     0.004917     0.355969  Biso 1.000000     H
    H   1.0     0.405350     0.504892     0.355813  Biso 1.000000     H
    H   1.0     0.905376     0.004920     0.355995  Biso 1.000000     H
    H   1.0     0.905382     0.504895     0.355829  Biso 1.000000     H
    H   1.0     0.085706     0.284931     0.040536  Biso 1.000000     H
    H   1.0     0.085729     0.784913     0.040631  Biso 1.000000     H
    H   1.0     0.585721     0.284888     0.040547  Biso 1.000000     H
    H   1.0     0.585746     0.784870     0.040649  Biso 1.000000     H
    H   1.0     0.213872     0.500618     0.241538  Biso 1.000000     H
    H   1.0     0.213861     0.000000     0.241571  Biso 1.000000     H
    H   1.0     0.713918     0.500576     0.241506  Biso 1.000000     H
    H   1.0     0.713910     0.000000     0.241543  Biso 1.000000     H
    H   1.0     0.137621     0.488693     0.075101  Biso 1.000000     H
    H   1.0     0.137614     0.988644     0.075077  Biso 1.000000     H
    H   1.0     0.637661     0.488649     0.075076  Biso 1.000000     H
    H   1.0     0.637658     0.988599     0.075053  Biso 1.000000     H
    H   1.0     0.065779     0.374840     0.888290  Biso 1.000000     H
    H   1.0     0.065794     0.874760     0.888278  Biso 1.000000     H
    H   1.0     0.565801     0.374791     0.888283  Biso 1.000000     H
    H   1.0     0.565820     0.874709     0.888273  Biso 1.000000     H
    H   1.0     0.030989     0.291844     0.891090  Biso 1.000000     H
    H   1.0     0.031011     0.791777     0.891128  Biso 1.000000     H
    H   1.0     0.530997     0.291798     0.891099  Biso 1.000000     H
    H   1.0     0.531023     0.791731     0.891141  Biso 1.000000     H
    H   1.0     0.435360     0.251173    -0.020923  Biso 1.000000     H
    H   1.0     0.435315     0.751060    -0.021080  Biso 1.000000     H
    H   1.0     0.935358     0.251188    -0.020954  Biso 1.000000     H
    H   1.0     0.935312     0.751080    -0.021106  Biso 1.000000     H
    H   1.0     0.339652     0.261057     0.038440  Biso 1.000000     H
    H   1.0     0.339600     0.760945     0.038244  Biso 1.000000     H
    H   1.0     0.839640     0.261049     0.038419  Biso 1.000000     H
    H   1.0     0.839589     0.760942     0.038231  Biso 1.000000     H
    H   1.0     0.424061     0.461612     0.026448  Biso 1.000000     H
    H   1.0     0.424106     0.961574     0.026471  Biso 1.000000     H
    H   1.0     0.924021     0.461617     0.026480  Biso 1.000000     H
    H   1.0     0.924064     0.961582     0.026504  Biso 1.000000     H
    H   1.0     0.019424     0.451722     0.966821  Biso 1.000000     H
    H   1.0     0.019470     0.951683     0.966874  Biso 1.000000     H
    H   1.0     0.519465     0.451694     0.966800  Biso 1.000000     H
    H   1.0     0.519514     0.951653     0.966856  Biso 1.000000     H
    H   1.0     0.293956     0.338398     0.118672  Biso 1.000000     H
    H   1.0     0.293959     0.838347     0.118606  Biso 1.000000     H
    H   1.0     0.793927     0.338370     0.118664  Biso 1.000000     H
    H   1.0     0.793930     0.838323     0.118604  Biso 1.000000     H
    H   1.0     0.330017     0.422090     0.118022  Biso 1.000000     H
    H   1.0     0.330034     0.922037     0.117946  Biso 1.000000     H
    H   1.0     0.829972     0.422064     0.118028  Biso 1.000000     H
    H   1.0     0.829989     0.922016     0.117957  Biso 1.000000     H
    H   1.0     0.275533     0.432366     0.973775  Biso 1.000000     H
    H   1.0     0.275544     0.932323     0.973721  Biso 1.000000     H
    H   1.0     0.775521     0.432335     0.973729  Biso 1.000000     H
    H   1.0     0.775532     0.932296     0.973678  Biso 1.000000     H
    H   1.0     0.146942     0.218588     0.764693  Biso 1.000000     H
    H   1.0     0.146910     0.718549     0.764665  Biso 1.000000     H
    H   1.0     0.646930     0.218552     0.764666  Biso 1.000000     H
    H   1.0     0.646900     0.718517     0.764641  Biso 1.000000     H
    H   1.0     0.221745     0.226179     0.928302  Biso 1.000000     H
    H   1.0     0.221721     0.726126     0.928245  Biso 1.000000     H
    H   1.0     0.721708     0.226153     0.928320  Biso 1.000000     H
    H   1.0     0.721683     0.726104     0.928269  Biso 1.000000     H
    H   1.0     0.277117     0.090499     0.537221  Biso 1.000000     H
    H   1.0     0.277137     0.590432     0.537232  Biso 1.000000     H
    H   1.0     0.777123     0.090468     0.537235  Biso 1.000000     H
    H   1.0     0.777141     0.590393     0.537249  Biso 1.000000     H
    H   1.0     0.333493     0.174848     0.639910  Biso 1.000000     H
    H   1.0     0.333519     0.674753     0.639954  Biso 1.000000     H
    H   1.0     0.833490     0.174821     0.639920  Biso 1.000000     H
    H   1.0     0.833513     0.674716     0.639972  Biso 1.000000     H
    C   1.0     0.205262     0.496390     0.897862  Biso 1.000000     C
    C   1.0     0.205192     0.996320     0.897808  Biso 1.000000     C
    C   1.0     0.705291     0.496361     0.897821  Biso 1.000000     C
    C   1.0     0.705220     0.996292     0.897764  Biso 1.000000     C
    C   1.0     0.195442     0.056423     0.957125  Biso 1.000000     C
    C   1.0     0.195509     0.556474     0.957205  Biso 1.000000     C
    C   1.0     0.695481     0.056399     0.957104  Biso 1.000000     C
    C   1.0     0.695548     0.556449     0.957191  Biso 1.000000     C
    C   1.0     0.244866     0.118167     0.045485  Biso 1.000000     C
    C   1.0     0.244944     0.618231     0.045538  Biso 1.000000     C
    C   1.0     0.744915     0.118141     0.045455  Biso 1.000000     C
    C   1.0     0.744994     0.618204     0.045513  Biso 1.000000     C
    C   1.0     0.231907     0.172783     0.097719  Biso 1.000000     C
    C   1.0     0.231974     0.672836     0.097793  Biso 1.000000     C
    C   1.0     0.731963     0.172759     0.097716  Biso 1.000000     C
    C   1.0     0.732031     0.672812     0.097795  Biso 1.000000     C
    C   1.0     0.172561     0.167311     0.065557  Biso 1.000000     C
    C   1.0     0.172631     0.667366     0.065618  Biso 1.000000     C
    C   1.0     0.672605     0.167282     0.065604  Biso 1.000000     C
    C   1.0     0.672679     0.667339     0.065662  Biso 1.000000     C
    C   1.0     0.123784     0.106255     0.978784  Biso 1.000000     C
    C   1.0     0.123840     0.606294     0.978879  Biso 1.000000     C
    C   1.0     0.623822     0.106232     0.978829  Biso 1.000000     C
    C   1.0     0.623880     0.606271     0.978928  Biso 1.000000     C
    C   1.0     0.135958     0.052366     0.926229  Biso 1.000000     C
    C   1.0     0.136024     0.552415     0.926307  Biso 1.000000     C
    C   1.0     0.635988     0.052340     0.926254  Biso 1.000000     C
    C   1.0     0.636056     0.552390     0.926333  Biso 1.000000     C
    C   1.0     0.160329     0.226706     0.121558  Biso 1.000000     C
    C   1.0     0.160375     0.726737     0.121657  Biso 1.000000     C
    C   1.0     0.660377     0.226681     0.121599  Biso 1.000000     C
    C   1.0     0.660424     0.726712     0.121706  Biso 1.000000     C
    C   1.0     0.230184     0.337674     0.566564  Biso 1.000000     C
    C   1.0     0.230195     0.837657     0.566557  Biso 1.000000     C
    C   1.0     0.730190     0.337641     0.566512  Biso 1.000000     C
    C   1.0     0.730204     0.837626     0.566505  Biso 1.000000     C
    C   1.0     0.273668     0.450110     0.668553  Biso 1.000000     C
    C   1.0     0.273664     0.950090     0.668550  Biso 1.000000     C
    C   1.0     0.773673     0.450077     0.668503  Biso 1.000000     C
    C   1.0     0.773675     0.950059     0.668502  Biso 1.000000     C
    C   1.0     0.306693     0.445120     0.588136  Biso 1.000000     C
    C   1.0     0.306700     0.945109     0.588147  Biso 1.000000     C
    C   1.0     0.806704     0.445088     0.588095  Biso 1.000000     C
    C   1.0     0.806717     0.945078     0.588107  Biso 1.000000     C
    C   1.0     0.302174     0.343345     0.432484  Biso 1.000000     C
    C   1.0     0.302199     0.843343     0.432499  Biso 1.000000     C
    C   1.0     0.802197     0.343317     0.432456  Biso 1.000000     C
    C   1.0     0.802226     0.843316     0.432472  Biso 1.000000     C
    C   1.0     0.366706     0.349193     0.466557  Biso 1.000000     C
    C   1.0     0.366722     0.849176     0.466583  Biso 1.000000     C
    C   1.0     0.866733     0.349182     0.466557  Biso 1.000000     C
    C   1.0     0.866752     0.849165     0.466583  Biso 1.000000     C
    C   1.0     0.366442     0.297077     0.489427  Biso 1.000000     C
    C   1.0     0.366439     0.797042     0.489423  Biso 1.000000     C
    C   1.0     0.866476     0.297076     0.489446  Biso 1.000000     C
    C   1.0     0.866474     0.797039     0.489442  Biso 1.000000     C
    C   1.0     0.426133     0.304415     0.525652  Biso 1.000000     C
    C   1.0     0.426119     0.804364     0.525658  Biso 1.000000     C
    C   1.0     0.926169     0.304428     0.525694  Biso 1.000000     C
    C   1.0     0.926157     0.804375     0.525700  Biso 1.000000     C
    C   1.0     0.487442     0.364051     0.539790  Biso 1.000000     C
    C   1.0     0.487436     0.864003     0.539838  Biso 1.000000     C
    C   1.0     0.987474     0.364071     0.539840  Biso 1.000000     C
    C   1.0     0.987470     0.864021     0.539888  Biso 1.000000     C
    C   1.0     0.487681     0.415998     0.516496  Biso 1.000000     C
    C   1.0     0.487694     0.915968     0.516573  Biso 1.000000     C
    C   1.0     0.987706     0.416011     0.516533  Biso 1.000000     C
    C   1.0     0.987723     0.915979     0.516608  Biso 1.000000     C
    C   1.0     0.428029     0.408644     0.480166  Biso 1.000000     C
    C   1.0     0.428053     0.908630     0.480234  Biso 1.000000     C
    C   1.0     0.928052     0.408642     0.480179  Biso 1.000000     C
    C   1.0     0.928079     0.908627     0.480246  Biso 1.000000     C
    C   1.0     0.052131     0.370623     0.575328  Biso 1.000000     C
    C   1.0     0.052116     0.870557     0.575385  Biso 1.000000     C
    C   1.0     0.552105     0.370594     0.575276  Biso 1.000000     C
    C   1.0     0.552089     0.870533     0.575336  Biso 1.000000     C
    C   1.0     0.126687     0.379731     0.445120  Biso 1.000000     C
    C   1.0     0.126697     0.879709     0.445218  Biso 1.000000     C
    C   1.0     0.626682     0.379699     0.445098  Biso 1.000000     C
    C   1.0     0.626693     0.879680     0.445200  Biso 1.000000     C
    C   1.0     0.084324     0.268153     0.339206  Biso 1.000000     C
    C   1.0     0.084341     0.768141     0.339248  Biso 1.000000     C
    C   1.0     0.584318     0.268121     0.339183  Biso 1.000000     C
    C   1.0     0.584335     0.768111     0.339230  Biso 1.000000     C
    C   1.0     0.049919     0.271131     0.418041  Biso 1.000000     C
    C   1.0     0.049924     0.771096     0.418068  Biso 1.000000     C
    C   1.0     0.549896     0.271100     0.417995  Biso 1.000000     C
    C   1.0     0.549899     0.771068     0.418026  Biso 1.000000     C
    C   1.0     0.292755     0.498782     0.400440  Biso 1.000000     C
    C   1.0     0.292753     0.998815     0.400529  Biso 1.000000     C
    C   1.0     0.792775     0.498756     0.400462  Biso 1.000000     C
    C   1.0     0.792774     0.998791     0.400558  Biso 1.000000     C
    C   1.0     0.361911     0.057741     0.458828  Biso 1.000000     C
    C   1.0     0.361920     0.557685     0.458749  Biso 1.000000     C
    C   1.0     0.861930     0.057733     0.458840  Biso 1.000000     C
    C   1.0     0.861937     0.557672     0.458760  Biso 1.000000     C
    C   1.0     0.374471     0.119585     0.548679  Biso 1.000000     C
    C   1.0     0.374484     0.619508     0.548648  Biso 1.000000     C
    C   1.0     0.874481     0.119568     0.548702  Biso 1.000000     C
    C   1.0     0.874492     0.619485     0.548672  Biso 1.000000     C
    C   1.0     0.441386     0.172996     0.599738  Biso 1.000000     C
    C   1.0     0.441399     0.672915     0.599704  Biso 1.000000     C
    C   1.0     0.941393     0.172994     0.599752  Biso 1.000000     C
    C   1.0     0.941404     0.672906     0.599721  Biso 1.000000     C
    C   1.0     0.494427     0.166386     0.564813  Biso 1.000000     C
    C   1.0     0.494439     0.666320     0.564740  Biso 1.000000     C
    C   1.0     0.994440     0.166382     0.564863  Biso 1.000000     C
    C   1.0     0.994451     0.666315     0.564785  Biso 1.000000     C
    C   1.0     0.481918     0.105238     0.476537  Biso 1.000000     C
    C   1.0     0.481928     0.605193     0.476417  Biso 1.000000     C
    C   1.0     0.981940     0.105252     0.476557  Biso 1.000000     C
    C   1.0     0.981949     0.605205     0.476433  Biso 1.000000     C
    C   1.0     0.416484     0.052505     0.425166  Biso 1.000000     C
    C   1.0     0.416491     0.552465     0.425044  Biso 1.000000     C
    C   1.0     0.916508     0.052505     0.425194  Biso 1.000000     C
    C   1.0     0.916515     0.552463     0.425065  Biso 1.000000     C
    C   1.0     0.065311     0.224645     0.619677  Biso 1.000000     C
    C   1.0     0.065319     0.724583     0.619615  Biso 1.000000     C
    C   1.0     0.565307     0.224629     0.619664  Biso 1.000000     C
    C   1.0     0.565317     0.724571     0.619599  Biso 1.000000     C
    C   1.0     0.109963     0.341818     0.072408  Biso 1.000000     C
    C   1.0     0.109976     0.841798     0.072480  Biso 1.000000     C
    C   1.0     0.609984     0.341774     0.072411  Biso 1.000000     C
    C   1.0     0.609999     0.841754     0.072488  Biso 1.000000     C
    C   1.0     0.176161     0.454353     0.174171  Biso 1.000000     C
    C   1.0     0.176157     0.954341     0.174209  Biso 1.000000     C
    C   1.0     0.676200     0.454311     0.174150  Biso 1.000000     C
    C   1.0     0.676199     0.954299     0.174192  Biso 1.000000     C
    C   1.0     0.138417     0.449061     0.093367  Biso 1.000000     C
    C   1.0     0.138415     0.949025     0.093375  Biso 1.000000     C
    C   1.0     0.638453     0.449018     0.093348  Biso 1.000000     C
    C   1.0     0.638454     0.948981     0.093359  Biso 1.000000     C
    C   1.0     0.044104     0.346598     0.936940  Biso 1.000000     C
    C   1.0     0.044117     0.846532     0.936946  Biso 1.000000     C
    C   1.0     0.544124     0.346557     0.936943  Biso 1.000000     C
    C   1.0     0.544141     0.846489     0.936951  Biso 1.000000     C
    C   1.0     0.484183     0.350787     0.968885  Biso 1.000000     C
    C   1.0     0.484189     0.850714     0.968847  Biso 1.000000     C
    C   1.0     0.984165     0.350811     0.968878  Biso 1.000000     C
    C   1.0     0.984169     0.850740     0.968841  Biso 1.000000     C
    C   1.0     0.433082     0.297517    -0.010560  Biso 1.000000     C
    C   1.0     0.433057     0.797422    -0.010676  Biso 1.000000     C
    C   1.0     0.933071     0.297530    -0.010578  Biso 1.000000     C
    C   1.0     0.933045     0.797438    -0.010689  Biso 1.000000     C
    C   1.0     0.379249     0.303110     0.023161  Biso 1.000000     C
    C   1.0     0.379219     0.803015     0.023021  Biso 1.000000     C
    C   1.0     0.879234     0.303110     0.023149  Biso 1.000000     C
    C   1.0     0.879203     0.803019     0.023014  Biso 1.000000     C
    C   1.0     0.375381     0.362210     0.037304  Biso 1.000000     C
    C   1.0     0.375378     0.862138     0.037222  Biso 1.000000     C
    C   1.0     0.875356     0.362207     0.037310  Biso 1.000000     C
    C   1.0     0.875352     0.862139     0.037233  Biso 1.000000     C
    C   1.0     0.426336     0.415300     0.016257  Biso 1.000000     C
    C   1.0     0.426360     0.915245     0.016240  Biso 1.000000     C
    C   1.0     0.926305     0.415308     0.016275  Biso 1.000000     C
    C   1.0     0.926327     0.915256     0.016259  Biso 1.000000     C
    C   1.0     0.480113     0.409692     0.982457  Biso 1.000000     C
    C   1.0     0.480142     0.909638     0.982463  Biso 1.000000     C
    C   1.0     0.980086     0.409713     0.982469  Biso 1.000000     C
    C   1.0     0.980113     0.909661     0.982475  Biso 1.000000     C
    C   1.0     0.316001     0.367159     0.070755  Biso 1.000000     C
    C   1.0     0.316005     0.867101     0.070680  Biso 1.000000     C
    C   1.0     0.815968     0.367138     0.070756  Biso 1.000000     C
    C   1.0     0.815972     0.867085     0.070686  Biso 1.000000     C
    C   1.0     0.250861     0.375396     0.939282  Biso 1.000000     C
    C   1.0     0.250863     0.875353     0.939229  Biso 1.000000     C
    C   1.0     0.750845     0.375365     0.939249  Biso 1.000000     C
    C   1.0     0.750847     0.875326     0.939199  Biso 1.000000     C
    C   1.0     0.184453     0.263727     0.833430  Biso 1.000000     C
    C   1.0     0.184430     0.763685     0.833393  Biso 1.000000     C
    C   1.0     0.684436     0.263693     0.833407  Biso 1.000000     C
    C   1.0     0.684415     0.763656     0.833373  Biso 1.000000     C
    C   1.0     0.221589     0.266973     0.912656  Biso 1.000000     C
    C   1.0     0.221572     0.766924     0.912603  Biso 1.000000     C
    C   1.0     0.721559     0.266944     0.912655  Biso 1.000000     C
    C   1.0     0.721543     0.766900     0.912607  Biso 1.000000     C
    N   1.0     0.226012     0.382762     0.654360  Biso 1.000000     N
    N   1.0     0.226010     0.882738     0.654346  Biso 1.000000     N
    N   1.0     0.726014     0.382728     0.654304  Biso 1.000000     N
    N   1.0     0.726016     0.882706     0.654291  Biso 1.000000     N
    N   1.0     0.278556     0.373778     0.524116  Biso 1.000000     N
    N   1.0     0.278572     0.873768     0.524123  Biso 1.000000     N
    N   1.0     0.778567     0.373746     0.524073  Biso 1.000000     N
    N   1.0     0.778587     0.873738     0.524081  Biso 1.000000     N
    N   1.0     0.132200     0.336262     0.356889  Biso 1.000000     N
    N   1.0     0.132219     0.836259     0.356975  Biso 1.000000     N
    N   1.0     0.632205     0.336229     0.356880  Biso 1.000000     N
    N   1.0     0.632225     0.836228     0.356972  Biso 1.000000     N
    N   1.0     0.077349     0.341987     0.484570  Biso 1.000000     N
    N   1.0     0.077350     0.841945     0.484634  Biso 1.000000     N
    N   1.0     0.577326     0.341956     0.484525  Biso 1.000000     N
    N   1.0     0.577326     0.841918     0.484592  Biso 1.000000     N
    N   1.0     0.302647     0.123914     0.081487  Biso 1.000000     N
    N   1.0     0.302731     0.623983     0.081525  Biso 1.000000     N
    N   1.0     0.802706     0.123885     0.081409  Biso 1.000000     N
    N   1.0     0.802790     0.623953     0.081454  Biso 1.000000     N
    N   1.0     0.158023     0.387117     0.160319  Biso 1.000000     N
    N   1.0     0.158029     0.887114     0.160397  Biso 1.000000     N
    N   1.0     0.658052     0.387074     0.160310  Biso 1.000000     N
    N   1.0     0.658061     0.887072     0.160395  Biso 1.000000     N
    N   1.0     0.096969     0.377639     0.029496  Biso 1.000000     N
    N   1.0     0.096977     0.877598     0.029525  Biso 1.000000     N
    N   1.0     0.596993     0.377595     0.029492  Biso 1.000000     N
    N   1.0     0.597004     0.877553     0.029525  Biso 1.000000     N
    N   1.0     0.203097     0.331742     0.850868  Biso 1.000000     N
    N   1.0     0.203086     0.831703     0.850830  Biso 1.000000     N
    N   1.0     0.703089     0.331707     0.850825  Biso 1.000000     N
    N   1.0     0.703079     0.831672     0.850790  Biso 1.000000     N
    N   1.0     0.263224     0.337905     0.979138  Biso 1.000000     N
    N   1.0     0.263224     0.837856     0.979075  Biso 1.000000     N
    N   1.0     0.763193     0.337878     0.979132  Biso 1.000000     N
    N   1.0     0.763192     0.837833     0.979074  Biso 1.000000     N
    N   1.0     0.323276     0.126489     0.587255  Biso 1.000000     N
    N   1.0     0.323293     0.626394     0.587283  Biso 1.000000     N
    N   1.0     0.823281     0.126463     0.587272  Biso 1.000000     N
    N   1.0     0.823296     0.626358     0.587307  Biso 1.000000     N
    O   1.0     0.260906     0.001699     0.915099  Biso 1.000000     O
    O   1.0     0.260974     0.501751     0.915165  Biso 1.000000     O
    O   1.0     0.760940     0.001672     0.914997  Biso 1.000000     O
    O   1.0     0.761007     0.501722     0.915074  Biso 1.000000     O
    O   1.0     0.153580     0.439217     0.828637  Biso 1.000000     O
    O   1.0     0.153516     0.939149     0.828567  Biso 1.000000     O
    O   1.0     0.653598     0.439190     0.828619  Biso 1.000000     O
    O   1.0     0.653533     0.939122     0.828546  Biso 1.000000     O
    O   1.0     0.211376     0.284949     0.191076  Biso 1.000000     O
    O   1.0     0.211419     0.784990     0.191160  Biso 1.000000     O
    O   1.0     0.711419     0.284923     0.191128  Biso 1.000000     O
    O   1.0     0.711464     0.784965     0.191218  Biso 1.000000     O
    O   1.0     0.104293     0.218355     0.099931  Biso 1.000000     O
    O   1.0     0.104334     0.718372     0.100016  Biso 1.000000     O
    O   1.0     0.604339     0.218325     0.099974  Biso 1.000000     O
    O   1.0     0.604381     0.718343     0.100064  Biso 1.000000     O
    O   1.0     0.243064     0.005359     0.420018  Biso 1.000000     O
    O   1.0     0.243078     0.505331     0.419949  Biso 1.000000     O
    O   1.0     0.743080     0.005329     0.420030  Biso 1.000000     O
    O   1.0     0.743093     0.505298     0.419958  Biso 1.000000     O
    O   1.0     0.287123     0.441162     0.329916  Biso 1.000000     O
    O   1.0     0.287136     0.941195     0.330029  Biso 1.000000     O
    O   1.0     0.787150     0.441141     0.329933  Biso 1.000000     O
    O   1.0     0.787164     0.941176     0.330054  Biso 1.000000     O
    O   1.0     0.072585     0.283336     0.690219  Biso 1.000000     O
    O   1.0     0.072579     0.783263     0.690171  Biso 1.000000     O
    O   1.0     0.572585     0.283329     0.690179  Biso 1.000000     O
    O   1.0     0.572581     0.783260     0.690128  Biso 1.000000     O
    O   1.0     0.112434     0.215240     0.596091  Biso 1.000000     O
    O   1.0     0.112451     0.715197     0.596029  Biso 1.000000     O
    O   1.0     0.612430     0.215224     0.596077  Biso 1.000000     O
    O   1.0     0.612449     0.715182     0.596017  Biso 1.000000     O
   Zn   1.0     0.168174     0.358796     0.755294  Biso 1.000000    Zn
   Zn   1.0     0.168158     0.858754     0.755256  Biso 1.000000    Zn
   Zn   1.0     0.668180     0.358763     0.755239  Biso 1.000000    Zn
   Zn   1.0     0.668166     0.858724     0.755200  Biso 1.000000    Zn
   Zn   1.0     0.192897     0.362745     0.259878  Biso 1.000000    Zn
   Zn   1.0     0.192922     0.862774     0.259995  Biso 1.000000    Zn
   Zn   1.0     0.692925     0.362717     0.259898  Biso 1.000000    Zn
   Zn   1.0     0.692953     0.862747     0.260025  Biso 1.000000    Zn
