#======================================================================

# CRYSTAL DATA

#----------------------------------------------------------------------

data_VESTA_phase_1


_pd_phase_name                         MOF
_cell_length_a                         18.30000
_cell_length_b                         17.82600
_cell_length_c                         15.73400
_cell_angle_alpha                      90.00000
_cell_angle_beta                       90.00000
_cell_angle_gamma                      90.00000
_symmetry_space_group_name_H-M         "P 1"
_symmetry_Int_Tables_number            1

loop_
_symmetry_equiv_pos_as_xyz
   "x, y, z"

loop_
   _atom_site_label
   _atom_site_occupancy
   _atom_site_fract_x
   _atom_site_fract_y
   _atom_site_fract_z
   _atom_site_adp_type
   _atom_site_B_iso_or_equiv
   _atom_site_type_symbol
    H   1.0     0.487320     0.421250     0.977946  Biso 1.000000     H
    H   1.0     0.987323     0.421250     0.977946  Biso 1.000000     H
    H   1.0     0.421436     0.504720     0.876284  Biso 1.000000     H
    H   1.0     0.921440     0.504720     0.876283  Biso 1.000000     H
    H   1.0     0.328523     0.304040     0.764623  Biso 1.000000     H
    H   1.0     0.828524     0.304040     0.764624  Biso 1.000000     H
    H   1.0     0.393686     0.230338     0.876391  Biso 1.000000     H
    H   1.0     0.893687     0.230337     0.876392  Biso 1.000000     H
    H   1.0     0.334167     0.435656     0.684414  Biso 1.000000     H
    H   1.0     0.834169     0.435655     0.684415  Biso 1.000000     H
    H   1.0     0.230365     0.459660     0.835857  Biso 1.000000     H
    H   1.0     0.730367     0.459660     0.835856  Biso 1.000000     H
    H   1.0     0.261747     0.362595     0.627258  Biso 1.000000     H
    H   1.0     0.761750     0.362594     0.627259  Biso 1.000000     H
    H   1.0     0.166019     0.284635     0.559105  Biso 1.000000     H
    H   1.0     0.666021     0.284635     0.559105  Biso 1.000000     H
    H   1.0     0.007170     0.356587     0.727508  Biso 1.000000     H
    H   1.0     0.507172     0.356588     0.727507  Biso 1.000000     H
    H   1.0     0.097707     0.431996     0.810018  Biso 1.000000     H
    H   1.0     0.597710     0.431996     0.810018  Biso 1.000000     H
    H   1.0     0.012678     0.078762     0.977945  Biso 1.000000     H
    H   1.0     0.512680     0.078762     0.977945  Biso 1.000000     H
    H   1.0     0.078564    -0.004707     0.876283  Biso 1.000000     H
    H   1.0     0.578566    -0.004708     0.876283  Biso 1.000000     H
    H   1.0     0.171478     0.195974     0.764625  Biso 1.000000     H
    H   1.0     0.671480     0.195974     0.764625  Biso 1.000000     H
    H   1.0     0.106312     0.269675     0.876392  Biso 1.000000     H
    H   1.0     0.606314     0.269675     0.876392  Biso 1.000000     H
    H   1.0     0.165831     0.064356     0.684412  Biso 1.000000     H
    H   1.0     0.665833     0.064355     0.684412  Biso 1.000000     H
    H   1.0     0.269635     0.040352     0.835860  Biso 1.000000     H
    H   1.0     0.769637     0.040352     0.835860  Biso 1.000000     H
    H   1.0     0.238252     0.137417     0.627258  Biso 1.000000     H
    H   1.0     0.738254     0.137416     0.627258  Biso 1.000000     H
    H   1.0     0.333980     0.215379     0.559106  Biso 1.000000     H
    H   1.0     0.833982     0.215379     0.559106  Biso 1.000000     H
    H   1.0     0.492829     0.143427     0.727507  Biso 1.000000     H
    H   1.0     0.992831     0.143427     0.727508  Biso 1.000000     H
    H   1.0     0.402294     0.068016     0.810017  Biso 1.000000     H
    H   1.0     0.902296     0.068016     0.810017  Biso 1.000000     H
    H   1.0     0.487323     0.578774     0.522038  Biso 1.000000     H
    H   1.0     0.987324     0.578773     0.522038  Biso 1.000000     H
    H   1.0     0.421435     0.495305     0.623700  Biso 1.000000     H
    H   1.0     0.921436     0.495304     0.623699  Biso 1.000000     H
    H   1.0     0.328521     0.695987     0.735355  Biso 1.000000     H
    H   1.0     0.828523     0.695987     0.735356  Biso 1.000000     H
    H   1.0     0.393688     0.769687     0.623590  Biso 1.000000     H
    H   1.0     0.893691     0.769687     0.623591  Biso 1.000000     H
    H   1.0     0.334170     0.564366     0.815573  Biso 1.000000     H
    H   1.0     0.834173     0.564365     0.815575  Biso 1.000000     H
    H   1.0     0.230365     0.540364     0.664121  Biso 1.000000     H
    H   1.0     0.730367     0.540363     0.664120  Biso 1.000000     H
    H   1.0     0.261748     0.637428     0.872725  Biso 1.000000     H
    H   1.0     0.761750     0.637427     0.872725  Biso 1.000000     H
    H   1.0     0.166022     0.715393     0.940877  Biso 1.000000     H
    H   1.0     0.666024     0.715393     0.940876  Biso 1.000000     H
    H   1.0     0.007171     0.643441     0.772476  Biso 1.000000     H
    H   1.0     0.507173     0.643441     0.772475  Biso 1.000000     H
    H   1.0     0.097705     0.568028     0.689968  Biso 1.000000     H
    H   1.0     0.597707     0.568028     0.689967  Biso 1.000000     H
    H   1.0     0.012679     0.921264     0.522037  Biso 1.000000     H
    H   1.0     0.512680     0.921263     0.522037  Biso 1.000000     H
    H   1.0     0.078564     0.000000     0.623700  Biso 1.000000     H
    H   1.0     0.578566     0.000000     0.623700  Biso 1.000000     H
    H   1.0     0.171478     0.804052     0.735357  Biso 1.000000     H
    H   1.0     0.671480     0.804052     0.735357  Biso 1.000000     H
    H   1.0     0.106313     0.730351     0.623590  Biso 1.000000     H
    H   1.0     0.606316     0.730351     0.623590  Biso 1.000000     H
    H   1.0     0.165831     0.935671     0.815571  Biso 1.000000     H
    H   1.0     0.665833     0.935670     0.815571  Biso 1.000000     H
    H   1.0     0.269635     0.959674     0.664123  Biso 1.000000     H
    H   1.0     0.769637     0.959673     0.664123  Biso 1.000000     H
    H   1.0     0.238252     0.862609     0.872724  Biso 1.000000     H
    H   1.0     0.738254     0.862608     0.872724  Biso 1.000000     H
    H   1.0     0.333979     0.784646     0.940877  Biso 1.000000     H
    H   1.0     0.833982     0.784646     0.940878  Biso 1.000000     H
    H   1.0     0.492829     0.856599     0.772476  Biso 1.000000     H
    H   1.0     0.992832     0.856599     0.772476  Biso 1.000000     H
    H   1.0     0.402294     0.932009     0.689967  Biso 1.000000     H
    H   1.0     0.902296     0.932009     0.689966  Biso 1.000000     H
    H   1.0     0.012678     0.578773     0.022044  Biso 1.000000     H
    H   1.0     0.512682     0.578775     0.022042  Biso 1.000000     H
    H   1.0     0.078567     0.495304     0.123705  Biso 1.000000     H
    H   1.0     0.578566     0.495306     0.123705  Biso 1.000000     H
    H   1.0     0.171480     0.695987     0.235362  Biso 1.000000     H
    H   1.0     0.671480     0.695986     0.235365  Biso 1.000000     H
    H   1.0     0.106313     0.769686     0.123596  Biso 1.000000     H
    H   1.0     0.606317     0.769688     0.123597  Biso 1.000000     H
    H   1.0     0.165830     0.564364     0.315581  Biso 1.000000     H
    H   1.0     0.665835     0.564370     0.315574  Biso 1.000000     H
    H   1.0     0.269635     0.540363     0.164126  Biso 1.000000     H
    H   1.0     0.769638     0.540366     0.164131  Biso 1.000000     H
    H   1.0     0.238252     0.637427     0.372731  Biso 1.000000     H
    H   1.0     0.738255     0.637431     0.372730  Biso 1.000000     H
    H   1.0     0.333978     0.715393     0.440882  Biso 1.000000     H
    H   1.0     0.833983     0.715391     0.440884  Biso 1.000000     H
    H   1.0     0.492830     0.643441     0.272482  Biso 1.000000     H
    H   1.0     0.992833     0.643438     0.272482  Biso 1.000000     H
    H   1.0     0.402296     0.568027     0.189974  Biso 1.000000     H
    H   1.0     0.902296     0.568029     0.189971  Biso 1.000000     H
    H   1.0     0.487323     0.921264     0.022044  Biso 1.000000     H
    H   1.0     0.987326     0.921265     0.022044  Biso 1.000000     H
    H   1.0     0.421436     0.000000     0.123705  Biso 1.000000     H
    H   1.0     0.921437     0.000000     0.123705  Biso 1.000000     H
    H   1.0     0.328522     0.804051     0.235363  Biso 1.000000     H
    H   1.0     0.828524     0.804051     0.235362  Biso 1.000000     H
    H   1.0     0.393688     0.730351     0.123596  Biso 1.000000     H
    H   1.0     0.893691     0.730352     0.123596  Biso 1.000000     H
    H   1.0     0.334170     0.935671     0.315577  Biso 1.000000     H
    H   1.0     0.834173     0.935673     0.315580  Biso 1.000000     H
    H   1.0     0.230366     0.959674     0.164128  Biso 1.000000     H
    H   1.0     0.730368     0.959675     0.164126  Biso 1.000000     H
    H   1.0     0.261749     0.862609     0.372730  Biso 1.000000     H
    H   1.0     0.761751     0.862611     0.372731  Biso 1.000000     H
    H   1.0     0.166021     0.784646     0.440883  Biso 1.000000     H
    H   1.0     0.666024     0.784645     0.440882  Biso 1.000000     H
    H   1.0     0.007171     0.856599     0.272481  Biso 1.000000     H
    H   1.0     0.507174     0.856598     0.272481  Biso 1.000000     H
    H   1.0     0.097707     0.932010     0.189972  Biso 1.000000     H
    H   1.0     0.597708     0.932011     0.189973  Biso 1.000000     H
    H   1.0     0.012680     0.421250     0.477952  Biso 1.000000     H
    H   1.0     0.512680     0.421252     0.477950  Biso 1.000000     H
    H   1.0     0.078563     0.504719     0.376289  Biso 1.000000     H
    H   1.0     0.578568     0.504721     0.376289  Biso 1.000000     H
    H   1.0     0.171478     0.304039     0.264630  Biso 1.000000     H
    H   1.0     0.671482     0.304038     0.264632  Biso 1.000000     H
    H   1.0     0.106314     0.230337     0.376398  Biso 1.000000     H
    H   1.0     0.606314     0.230338     0.376398  Biso 1.000000     H
    H   1.0     0.165834     0.435654     0.184422  Biso 1.000000     H
    H   1.0     0.665833     0.435659     0.184415  Biso 1.000000     H
    H   1.0     0.269636     0.459659     0.335862  Biso 1.000000     H
    H   1.0     0.769638     0.459662     0.335868  Biso 1.000000     H
    H   1.0     0.238253     0.362594     0.127265  Biso 1.000000     H
    H   1.0     0.738255     0.362598     0.127263  Biso 1.000000     H
    H   1.0     0.333982     0.284635     0.059110  Biso 1.000000     H
    H   1.0     0.833982     0.284633     0.059112  Biso 1.000000     H
    H   1.0     0.492831     0.356587     0.227513  Biso 1.000000     H
    H   1.0     0.992832     0.356584     0.227513  Biso 1.000000     H
    H   1.0     0.402293     0.431995     0.310025  Biso 1.000000     H
    H   1.0     0.902297     0.431997     0.310022  Biso 1.000000     H
    H   1.0     0.487322     0.078762     0.477951  Biso 1.000000     H
    H   1.0     0.987323     0.078763     0.477952  Biso 1.000000     H
    H   1.0     0.421437    -0.004708     0.376289  Biso 1.000000     H
    H   1.0     0.921440    -0.004707     0.376289  Biso 1.000000     H
    H   1.0     0.328523     0.195973     0.264630  Biso 1.000000     H
    H   1.0     0.828525     0.195973     0.264630  Biso 1.000000     H
    H   1.0     0.393687     0.269675     0.376398  Biso 1.000000     H
    H   1.0     0.893688     0.269676     0.376398  Biso 1.000000     H
    H   1.0     0.334169     0.064356     0.184418  Biso 1.000000     H
    H   1.0     0.834170     0.064358     0.184421  Biso 1.000000     H
    H   1.0     0.230366     0.040352     0.335865  Biso 1.000000     H
    H   1.0     0.730367     0.040353     0.335863  Biso 1.000000     H
    H   1.0     0.261749     0.137417     0.127264  Biso 1.000000     H
    H   1.0     0.761750     0.137419     0.127265  Biso 1.000000     H
    H   1.0     0.166021     0.215379     0.059111  Biso 1.000000     H
    H   1.0     0.666022     0.215378     0.059110  Biso 1.000000     H
    H   1.0     0.007171     0.143427     0.227513  Biso 1.000000     H
    H   1.0     0.507173     0.143426     0.227513  Biso 1.000000     H
    H   1.0     0.097707     0.068017     0.310022  Biso 1.000000     H
    H   1.0     0.597710     0.068018     0.310024  Biso 1.000000     H
    C   1.0     0.450334     0.398205     0.930183  Biso 1.000000     C
    C   1.0     0.950338     0.398205     0.930181  Biso 1.000000     C
    C   1.0     0.414334     0.444029     0.871917  Biso 1.000000     C
    C   1.0     0.914334     0.444029     0.871917  Biso 1.000000     C
    C   1.0     0.368493     0.411419     0.810983  Biso 1.000000     C
    C   1.0     0.868496     0.411418     0.810980  Biso 1.000000     C
    C   1.0     0.362267     0.332778     0.811511  Biso 1.000000     C
    C   1.0     0.862267     0.332777     0.811514  Biso 1.000000     C
    C   1.0     0.399046     0.291226     0.872825  Biso 1.000000     C
    C   1.0     0.899050     0.291225     0.872825  Biso 1.000000     C
    C   1.0     0.323952     0.456441     0.749278  Biso 1.000000     C
    C   1.0     0.823956     0.456444     0.749279  Biso 1.000000     C
    C   1.0     0.240012     0.458359     0.766809  Biso 1.000000     C
    C   1.0     0.740015     0.458358     0.766808  Biso 1.000000     C
    C   1.0     0.187694     0.405661     0.724811  Biso 1.000000     C
    C   1.0     0.687696     0.405659     0.724813  Biso 1.000000     C
    C   1.0     0.206386     0.363001     0.653203  Biso 1.000000     C
    C   1.0     0.706388     0.363003     0.653203  Biso 1.000000     C
    C   1.0     0.152976     0.319926     0.613617  Biso 1.000000     C
    C   1.0     0.652978     0.319924     0.613617  Biso 1.000000     C
    C   1.0     0.064458     0.358781     0.708469  Biso 1.000000     C
    C   1.0     0.564460     0.358779     0.708469  Biso 1.000000     C
    C   1.0     0.115055     0.401475     0.753440  Biso 1.000000     C
    C   1.0     0.615056     0.401476     0.753438  Biso 1.000000     C
    C   1.0     0.049667     0.101809     0.930186  Biso 1.000000     C
    C   1.0     0.549669     0.101809     0.930186  Biso 1.000000     C
    C   1.0     0.085661     0.055984     0.871916  Biso 1.000000     C
    C   1.0     0.585662     0.055984     0.871916  Biso 1.000000     C
    C   1.0     0.131508     0.088592     0.810987  Biso 1.000000     C
    C   1.0     0.631510     0.088592     0.810987  Biso 1.000000     C
    C   1.0     0.137731     0.167233     0.811509  Biso 1.000000     C
    C   1.0     0.637733     0.167233     0.811508  Biso 1.000000     C
    C   1.0     0.100956     0.208786     0.872826  Biso 1.000000     C
    C   1.0     0.600959     0.208786     0.872826  Biso 1.000000     C
    C   1.0     0.176052     0.043579     0.749278  Biso 1.000000     C
    C   1.0     0.676055     0.043579     0.749278  Biso 1.000000     C
    C   1.0     0.259992     0.041651     0.766810  Biso 1.000000     C
    C   1.0     0.759994     0.041651     0.766810  Biso 1.000000     C
    C   1.0     0.312306     0.094350     0.724807  Biso 1.000000     C
    C   1.0     0.812308     0.094350     0.724806  Biso 1.000000     C
    C   1.0     0.293612     0.137017     0.653205  Biso 1.000000     C
    C   1.0     0.793614     0.137017     0.653205  Biso 1.000000     C
    C   1.0     0.347026     0.180085     0.613613  Biso 1.000000     C
    C   1.0     0.847028     0.180085     0.613613  Biso 1.000000     C
    C   1.0     0.435542     0.141228     0.708467  Biso 1.000000     C
    C   1.0     0.935544     0.141228     0.708468  Biso 1.000000     C
    C   1.0     0.384942     0.098541     0.753443  Biso 1.000000     C
    C   1.0     0.884944     0.098541     0.753443  Biso 1.000000     C
    C   1.0     0.450332     0.601823     0.569794  Biso 1.000000     C
    C   1.0     0.950333     0.601824     0.569791  Biso 1.000000     C
    C   1.0     0.414343     0.555997     0.628066  Biso 1.000000     C
    C   1.0     0.914347     0.555997     0.628067  Biso 1.000000     C
    C   1.0     0.368492     0.588603     0.688992  Biso 1.000000     C
    C   1.0     0.868492     0.588602     0.688990  Biso 1.000000     C
    C   1.0     0.362270     0.667244     0.688476  Biso 1.000000     C
    C   1.0     0.862274     0.667243     0.688479  Biso 1.000000     C
    C   1.0     0.399040     0.708798     0.627157  Biso 1.000000     C
    C   1.0     0.899041     0.708798     0.627157  Biso 1.000000     C
    C   1.0     0.323941     0.543599     0.750705  Biso 1.000000     C
    C   1.0     0.823941     0.543602     0.750705  Biso 1.000000     C
    C   1.0     0.240002     0.541660     0.733171  Biso 1.000000     C
    C   1.0     0.740003     0.541659     0.733171  Biso 1.000000     C
    C   1.0     0.187694     0.594362     0.775180  Biso 1.000000     C
    C   1.0     0.687696     0.594361     0.775182  Biso 1.000000     C
    C   1.0     0.206389     0.637035     0.846777  Biso 1.000000     C
    C   1.0     0.706391     0.637036     0.846776  Biso 1.000000     C
    C   1.0     0.152972     0.680097     0.886372  Biso 1.000000     C
    C   1.0     0.652973     0.680095     0.886373  Biso 1.000000     C
    C   1.0     0.064458     0.641238     0.791516  Biso 1.000000     C
    C   1.0     0.564459     0.641236     0.791516  Biso 1.000000     C
    C   1.0     0.115060     0.598556     0.746538  Biso 1.000000     C
    C   1.0     0.615063     0.598557     0.746536  Biso 1.000000     C
    C   1.0     0.049666     0.898216     0.569797  Biso 1.000000     C
    C   1.0     0.549668     0.898216     0.569797  Biso 1.000000     C
    C   1.0     0.085661     0.944042     0.628066  Biso 1.000000     C
    C   1.0     0.585664     0.944041     0.628066  Biso 1.000000     C
    C   1.0     0.131507     0.911434     0.688996  Biso 1.000000     C
    C   1.0     0.631509     0.911433     0.688997  Biso 1.000000     C
    C   1.0     0.137732     0.832793     0.688474  Biso 1.000000     C
    C   1.0     0.637734     0.832792     0.688473  Biso 1.000000     C
    C   1.0     0.100957     0.791240     0.627158  Biso 1.000000     C
    C   1.0     0.600959     0.791239     0.627157  Biso 1.000000     C
    C   1.0     0.176054     0.956446     0.750705  Biso 1.000000     C
    C   1.0     0.676055     0.956447     0.750705  Biso 1.000000     C
    C   1.0     0.259993     0.958376     0.733173  Biso 1.000000     C
    C   1.0     0.759995     0.958375     0.733173  Biso 1.000000     C
    C   1.0     0.312305     0.905674     0.775176  Biso 1.000000     C
    C   1.0     0.812308     0.905674     0.775175  Biso 1.000000     C
    C   1.0     0.293612     0.863009     0.846779  Biso 1.000000     C
    C   1.0     0.793615     0.863009     0.846779  Biso 1.000000     C
    C   1.0     0.347026     0.819939     0.886369  Biso 1.000000     C
    C   1.0     0.847028     0.819939     0.886369  Biso 1.000000     C
    C   1.0     0.435542     0.858797     0.791515  Biso 1.000000     C
    C   1.0     0.935544     0.858797     0.791515  Biso 1.000000     C
    C   1.0     0.384942     0.901486     0.746541  Biso 1.000000     C
    C   1.0     0.884944     0.901486     0.746541  Biso 1.000000     C
    C   1.0     0.049671     0.601824     0.069797  Biso 1.000000     C
    C   1.0     0.549666     0.601821     0.069807  Biso 1.000000     C
    C   1.0     0.085654     0.555996     0.128073  Biso 1.000000     C
    C   1.0     0.585670     0.555996     0.128070  Biso 1.000000     C
    C   1.0     0.131511     0.588601     0.188995  Biso 1.000000     C
    C   1.0     0.631508     0.588606     0.189008  Biso 1.000000     C
    C   1.0     0.137728     0.667243     0.188486  Biso 1.000000     C
    C   1.0     0.637738     0.667247     0.188475  Biso 1.000000     C
    C   1.0     0.100964     0.708797     0.127162  Biso 1.000000     C
    C   1.0     0.600955     0.708800     0.127165  Biso 1.000000     C
    C   1.0     0.176062     0.543603     0.250712  Biso 1.000000     C
    C   1.0     0.676053     0.543585     0.250710  Biso 1.000000     C
    C   1.0     0.260000     0.541658     0.233177  Biso 1.000000     C
    C   1.0     0.759993     0.541664     0.233181  Biso 1.000000     C
    C   1.0     0.312306     0.594360     0.275188  Biso 1.000000     C
    C   1.0     0.812308     0.594366     0.275177  Biso 1.000000     C
    C   1.0     0.293612     0.637036     0.346782  Biso 1.000000     C
    C   1.0     0.793616     0.637024     0.346786  Biso 1.000000     C
    C   1.0     0.347029     0.680095     0.386379  Biso 1.000000     C
    C   1.0     0.847027     0.680101     0.386372  Biso 1.000000     C
    C   1.0     0.435543     0.641235     0.291523  Biso 1.000000     C
    C   1.0     0.935545     0.641245     0.291519  Biso 1.000000     C
    C   1.0     0.384939     0.598556     0.246543  Biso 1.000000     C
    C   1.0     0.884947     0.598549     0.246550  Biso 1.000000     C
    C   1.0     0.450334     0.898216     0.069802  Biso 1.000000     C
    C   1.0     0.950334     0.898215     0.069798  Biso 1.000000     C
    C   1.0     0.414340     0.944041     0.128072  Biso 1.000000     C
    C   1.0     0.914348     0.944042     0.128074  Biso 1.000000     C
    C   1.0     0.368493     0.911434     0.189001  Biso 1.000000     C
    C   1.0     0.868493     0.911436     0.188996  Biso 1.000000     C
    C   1.0     0.362269     0.832793     0.188480  Biso 1.000000     C
    C   1.0     0.862275     0.832795     0.188485  Biso 1.000000     C
    C   1.0     0.399044     0.791239     0.127163  Biso 1.000000     C
    C   1.0     0.899041     0.791241     0.127162  Biso 1.000000     C
    C   1.0     0.323946     0.956444     0.250710  Biso 1.000000     C
    C   1.0     0.823943     0.956437     0.250712  Biso 1.000000     C
    C   1.0     0.240006     0.958376     0.233178  Biso 1.000000     C
    C   1.0     0.740005     0.958379     0.233177  Biso 1.000000     C
    C   1.0     0.187695     0.905676     0.275183  Biso 1.000000     C
    C   1.0     0.687697     0.905678     0.275187  Biso 1.000000     C
    C   1.0     0.206389     0.863007     0.346783  Biso 1.000000     C
    C   1.0     0.706391     0.863003     0.346782  Biso 1.000000     C
    C   1.0     0.152974     0.819941     0.386376  Biso 1.000000     C
    C   1.0     0.652974     0.819943     0.386379  Biso 1.000000     C
    C   1.0     0.064458     0.858798     0.291521  Biso 1.000000     C
    C   1.0     0.564460     0.858802     0.291522  Biso 1.000000     C
    C   1.0     0.115059     0.901484     0.246545  Biso 1.000000     C
    C   1.0     0.615064     0.901482     0.246543  Biso 1.000000     C
    C   1.0     0.049664     0.398205     0.430186  Biso 1.000000     C
    C   1.0     0.549672     0.398203     0.430196  Biso 1.000000     C
    C   1.0     0.085669     0.444029     0.371924  Biso 1.000000     C
    C   1.0     0.585658     0.444029     0.371920  Biso 1.000000     C
    C   1.0     0.131506     0.411417     0.310986  Biso 1.000000     C
    C   1.0     0.631513     0.411423     0.310999  Biso 1.000000     C
    C   1.0     0.137736     0.332777     0.311521  Biso 1.000000     C
    C   1.0     0.637730     0.332781     0.311510  Biso 1.000000     C
    C   1.0     0.100951     0.291225     0.372831  Biso 1.000000     C
    C   1.0     0.600964     0.291228     0.372833  Biso 1.000000     C
    C   1.0     0.176046     0.456445     0.249285  Biso 1.000000     C
    C   1.0     0.676059     0.456427     0.249283  Biso 1.000000     C
    C   1.0     0.259986     0.458357     0.266814  Biso 1.000000     C
    C   1.0     0.759998     0.458363     0.266818  Biso 1.000000     C
    C   1.0     0.312307     0.405659     0.224819  Biso 1.000000     C
    C   1.0     0.812309     0.405665     0.224808  Biso 1.000000     C
    C   1.0     0.293614     0.363003     0.153209  Biso 1.000000     C
    C   1.0     0.793614     0.362991     0.153213  Biso 1.000000     C
    C   1.0     0.347024     0.319924     0.113623  Biso 1.000000     C
    C   1.0     0.847031     0.319930     0.113616  Biso 1.000000     C
    C   1.0     0.435543     0.358779     0.208475  Biso 1.000000     C
    C   1.0     0.935545     0.358788     0.208472  Biso 1.000000     C
    C   1.0     0.384946     0.401475     0.253445  Biso 1.000000     C
    C   1.0     0.884942     0.401469     0.253452  Biso 1.000000     C
    C   1.0     0.450334     0.101809     0.430191  Biso 1.000000     C
    C   1.0     0.950339     0.101808     0.430187  Biso 1.000000     C
    C   1.0     0.414339     0.055984     0.371922  Biso 1.000000     C
    C   1.0     0.914335     0.055984     0.371924  Biso 1.000000     C
    C   1.0     0.368493     0.088593     0.310992  Biso 1.000000     C
    C   1.0     0.868497     0.088595     0.310987  Biso 1.000000     C
    C   1.0     0.362269     0.167234     0.311515  Biso 1.000000     C
    C   1.0     0.862268     0.167235     0.311520  Biso 1.000000     C
    C   1.0     0.399044     0.208786     0.372832  Biso 1.000000     C
    C   1.0     0.899051     0.208788     0.372831  Biso 1.000000     C
    C   1.0     0.323949     0.043577     0.249283  Biso 1.000000     C
    C   1.0     0.823956     0.043570     0.249285  Biso 1.000000     C
    C   1.0     0.240010     0.041651     0.266815  Biso 1.000000     C
    C   1.0     0.740015     0.041654     0.266814  Biso 1.000000     C
    C   1.0     0.187695     0.094351     0.224814  Biso 1.000000     C
    C   1.0     0.687697     0.094354     0.224818  Biso 1.000000     C
    C   1.0     0.206388     0.137015     0.153210  Biso 1.000000     C
    C   1.0     0.706389     0.137011     0.153208  Biso 1.000000     C
    C   1.0     0.152975     0.180086     0.113620  Biso 1.000000     C
    C   1.0     0.652979     0.180089     0.113623  Biso 1.000000     C
    C   1.0     0.064458     0.141230     0.208473  Biso 1.000000     C
    C   1.0     0.564461     0.141234     0.208475  Biso 1.000000     C
    C   1.0     0.115058     0.098540     0.253447  Biso 1.000000     C
    C   1.0     0.615057     0.098537     0.253445  Biso 1.000000     C
    N   1.0     0.442609     0.323070     0.931817  Biso 1.000000     N
    N   1.0     0.942610     0.323070     0.931818  Biso 1.000000     N
    N   1.0     0.082738     0.318426     0.639282  Biso 1.000000     N
    N   1.0     0.582740     0.318426     0.639280  Biso 1.000000     N
    N   1.0     0.057390     0.176945     0.931814  Biso 1.000000     N
    N   1.0     0.557392     0.176945     0.931814  Biso 1.000000     N
    N   1.0     0.417262     0.181589     0.639285  Biso 1.000000     N
    N   1.0     0.917264     0.181589     0.639285  Biso 1.000000     N
    N   1.0     0.442610     0.676959     0.568170  Biso 1.000000     N
    N   1.0     0.942613     0.676960     0.568171  Biso 1.000000     N
    N   1.0     0.082738     0.681603     0.860696  Biso 1.000000     N
    N   1.0     0.582739     0.681603     0.860695  Biso 1.000000     N
    N   1.0     0.057391     0.823081     0.568168  Biso 1.000000     N
    N   1.0     0.557393     0.823081     0.568168  Biso 1.000000     N
    N   1.0     0.417262     0.818437     0.860699  Biso 1.000000     N
    N   1.0     0.917264     0.818437     0.860699  Biso 1.000000     N
    N   1.0     0.057391     0.676960     0.068178  Biso 1.000000     N
    N   1.0     0.557395     0.676956     0.068171  Biso 1.000000     N
    N   1.0     0.417263     0.681603     0.360700  Biso 1.000000     N
    N   1.0     0.917264     0.681599     0.360707  Biso 1.000000     N
    N   1.0     0.442610     0.823080     0.068174  Biso 1.000000     N
    N   1.0     0.942614     0.823079     0.068177  Biso 1.000000     N
    N   1.0     0.082739     0.818437     0.360703  Biso 1.000000     N
    N   1.0     0.582740     0.818435     0.360701  Biso 1.000000     N
    N   1.0     0.057392     0.323071     0.431824  Biso 1.000000     N
    N   1.0     0.557391     0.323066     0.431818  Biso 1.000000     N
    N   1.0     0.417262     0.318426     0.139286  Biso 1.000000     N
    N   1.0     0.917265     0.318422     0.139293  Biso 1.000000     N
    N   1.0     0.442610     0.176944     0.431821  Biso 1.000000     N
    N   1.0     0.942611     0.176943     0.431824  Biso 1.000000     N
    N   1.0     0.082739     0.181588     0.139289  Biso 1.000000     N
    N   1.0     0.582741     0.181587     0.139286  Biso 1.000000     N
   Cl   1.0     0.100193     0.356219     0.053513  Biso 1.000000    Cl
   Cl   1.0     0.600195     0.356219     0.053513  Biso 1.000000    Cl
   Cl   1.0     0.399809     0.143793     0.053513  Biso 1.000000    Cl
   Cl   1.0     0.899810     0.143793     0.053512  Biso 1.000000    Cl
   Cl   1.0     0.100193     0.643806     0.446481  Biso 1.000000    Cl
   Cl   1.0     0.600195     0.643806     0.446482  Biso 1.000000    Cl
   Cl   1.0     0.399808     0.856232     0.446481  Biso 1.000000    Cl
   Cl   1.0     0.899810     0.856232     0.446480  Biso 1.000000    Cl
   Cl   1.0     0.399808     0.643806     0.946475  Biso 1.000000    Cl
   Cl   1.0     0.899810     0.643806     0.946475  Biso 1.000000    Cl
   Cl   1.0     0.100192     0.856232     0.946476  Biso 1.000000    Cl
   Cl   1.0     0.600194     0.856232     0.946476  Biso 1.000000    Cl
   Cl   1.0     0.399807     0.356219     0.553507  Biso 1.000000    Cl
   Cl   1.0     0.899810     0.356219     0.553506  Biso 1.000000    Cl
   Cl   1.0     0.100192     0.143794     0.553508  Biso 1.000000    Cl
   Cl   1.0     0.600194     0.143793     0.553508  Biso 1.000000    Cl
   Cd   1.0    -0.000000     0.250006     0.046461  Biso 1.000000    Cd
   Cd   1.0     0.500002     0.250006     0.046461  Biso 1.000000    Cd
   Cd   1.0    -0.000000     0.750019     0.453533  Biso 1.000000    Cd
   Cd   1.0     0.500001     0.750019     0.453533  Biso 1.000000    Cd
   Cd   1.0    -0.000001     0.750019     0.953528  Biso 1.000000    Cd
   Cd   1.0     0.500001     0.750019     0.953527  Biso 1.000000    Cd
   Cd   1.0    -0.000001     0.250006     0.546456  Biso 1.000000    Cd
   Cd   1.0     0.500001     0.250006     0.546455  Biso 1.000000    Cd
