#======================================================================

# CRYSTAL DATA

#----------------------------------------------------------------------

data_VESTA_phase_1


_pd_phase_name                         MOF
_cell_length_a                         12.36500
_cell_length_b                         20.16300
_cell_length_c                         20.18000
_cell_angle_alpha                      102.30200
_cell_angle_beta                       94.91200
_cell_angle_gamma                      94.69600
_symmetry_space_group_name_H-M         "P 1"
_symmetry_Int_Tables_number            1

loop_
_symmetry_equiv_pos_as_xyz
   "x, y, z"

loop_
   _atom_site_label
   _atom_site_occupancy
   _atom_site_fract_x
   _atom_site_fract_y
   _atom_site_fract_z
   _atom_site_adp_type
   _atom_site_B_iso_or_equiv
   _atom_site_type_symbol
    H   1.0     0.498254     0.199551     0.534737  Biso 1.000000     H
    H   1.0     0.565188     0.218511     0.619409  Biso 1.000000     H
    H   1.0     0.538042     0.139719     0.693467  Biso 1.000000     H
    H   1.0     0.452612     0.061680     0.662729  Biso 1.000000     H
    H   1.0     0.362568     0.034853     0.548026  Biso 1.000000     H
    H   1.0     0.382826     0.092679     0.493103  Biso 1.000000     H
    H   1.0     0.314493     0.247450     0.701158  Biso 1.000000     H
    H   1.0     0.458664     0.246056     0.715739  Biso 1.000000     H
    H   1.0     0.199230     0.141422     0.659266  Biso 1.000000     H
    H   1.0     0.258493     0.062414     0.641939  Biso 1.000000     H
    H   1.0     0.303686     0.200153     0.515268  Biso 1.000000     H
    H   1.0     0.224408     0.220185     0.585901  Biso 1.000000     H
    H   1.0     0.858826     0.871940     0.465334  Biso 1.000000     H
    H   1.0     0.914181     0.888523     0.552473  Biso 1.000000     H
    H   1.0     0.984575     0.030667     0.432478  Biso 1.000000     H
    H   1.0     0.900348     0.953339     0.395851  Biso 1.000000     H
    H   1.0     0.028123     0.994348     0.602164  Biso 1.000000     H
    H   1.0     0.059380     0.054026     0.550791  Biso 1.000000     H
    H   1.0     0.979394     0.846462     0.375618  Biso 1.000000     H
    H   1.0     0.121839     0.844469     0.397778  Biso 1.000000     H
    H   1.0     0.176388     0.028366     0.463344  Biso 1.000000     H
    H   1.0     0.234752     0.948698     0.447927  Biso 1.000000     H
    H   1.0     0.195614     0.868070     0.516632  Biso 1.000000     H
    H   1.0     0.106031     0.886355     0.582000  Biso 1.000000     H
    H   1.0     0.668197     0.849128     0.351318  Biso 1.000000     H
    H   1.0     0.268659     0.864899     0.309657  Biso 1.000000     H
    H   1.0     0.385949     0.952533     0.398362  Biso 1.000000     H
    H   1.0     0.651626     0.744851     0.258143  Biso 1.000000     H
    H   1.0     0.534893     0.657513     0.167880  Biso 1.000000     H
    H   1.0     0.250622     0.756648     0.219559  Biso 1.000000     H
    H   1.0     0.927631     0.149744     0.399469  Biso 1.000000     H
    H   1.0     0.983610     0.246861     0.347214  Biso 1.000000     H
    H   1.0     0.647852     0.247115     0.467886  Biso 1.000000     H
    H   1.0     0.951486     0.361216     0.324180  Biso 1.000000     H
    H   1.0     0.683203     0.462997     0.404751  Biso 1.000000     H
    H   1.0     0.620172     0.361725     0.449528  Biso 1.000000     H
    H   1.0     0.124409     0.337421     0.623598  Biso 1.000000     H
    H   1.0     0.982891     0.510096     0.802266  Biso 1.000000     H
    H   1.0     0.181622     0.506826     0.797059  Biso 1.000000     H
    H   1.0     0.933568     0.293809     0.573514  Biso 1.000000     H
    H   1.0     0.734843     0.297219     0.578420  Biso 1.000000     H
    H   1.0     0.791838     0.461023     0.757034  Biso 1.000000     H
    H   1.0     0.775089     0.842360     0.620816  Biso 1.000000     H
    H   1.0     0.429557     0.839519     0.731688  Biso 1.000000     H
    H   1.0     0.487867     0.936648     0.680153  Biso 1.000000     H
    H   1.0     0.800852     0.727410     0.638964  Biso 1.000000     H
    H   1.0     0.735452     0.625878     0.682762  Biso 1.000000     H
    H   1.0     0.461814     0.726283     0.756775  Biso 1.000000     H
    H   1.0     0.999074     0.534866     0.199344  Biso 1.000000     H
    H   1.0     0.065463     0.619661     0.218626  Biso 1.000000     H
    H   1.0     0.037366     0.694020     0.140098  Biso 1.000000     H
    H   1.0     0.951902     0.663373     0.061964  Biso 1.000000     H
    H   1.0     0.862658     0.548476     0.034784  Biso 1.000000     H
    H   1.0     0.883651     0.493389     0.092433  Biso 1.000000     H
    H   1.0     0.814060     0.701116     0.247438  Biso 1.000000     H
    H   1.0     0.958145     0.715893     0.246235  Biso 1.000000     H
    H   1.0     0.698731     0.659325     0.141308  Biso 1.000000     H
    H   1.0     0.757870     0.642262     0.062424  Biso 1.000000     H
    H   1.0     0.804640     0.515172     0.199756  Biso 1.000000     H
    H   1.0     0.724809     0.585713     0.219825  Biso 1.000000     H
    H   1.0     0.358781     0.465144     0.871719  Biso 1.000000     H
    H   1.0     0.413494     0.552387     0.888569  Biso 1.000000     H
    H   1.0     0.485336     0.432046     0.030411  Biso 1.000000     H
    H   1.0     0.401170     0.395444     0.952947  Biso 1.000000     H
    H   1.0     0.527306     0.601999     0.994492  Biso 1.000000     H
    H   1.0     0.559207     0.550496     0.054062  Biso 1.000000     H
    H   1.0     0.480051     0.375552     0.846285  Biso 1.000000     H
    H   1.0     0.622330     0.397885     0.844499  Biso 1.000000     H
    H   1.0     0.676903     0.463198     0.028422  Biso 1.000000     H
    H   1.0     0.735189     0.448018     0.948865  Biso 1.000000     H
    H   1.0     0.695232     0.516892     0.868414  Biso 1.000000     H
    H   1.0     0.605125     0.582160     0.886661  Biso 1.000000     H
    H   1.0     0.167942     0.351358     0.849084  Biso 1.000000     H
    H   1.0     0.768716     0.309918     0.864873  Biso 1.000000     H
    H   1.0     0.886002     0.398879     0.952234  Biso 1.000000     H
    H   1.0     0.151283     0.258021     0.745005  Biso 1.000000     H
    H   1.0     0.034560     0.167690     0.657776  Biso 1.000000     H
    H   1.0     0.750499     0.219594     0.756733  Biso 1.000000     H
    H   1.0     0.428558     0.399111     0.150329  Biso 1.000000     H
    H   1.0     0.484102     0.346932     0.247729  Biso 1.000000     H
    H   1.0     0.147659     0.467629     0.246079  Biso 1.000000     H
    H   1.0     0.451444     0.324105     0.361760  Biso 1.000000     H
    H   1.0     0.182248     0.404836     0.462211  Biso 1.000000     H
    H   1.0     0.119398     0.449418     0.360646  Biso 1.000000     H
    H   1.0     0.624602     0.623384     0.337345  Biso 1.000000     H
    H   1.0     0.483017     0.802358     0.509696  Biso 1.000000     H
    H   1.0     0.681747     0.797205     0.506380  Biso 1.000000     H
    H   1.0     0.433773     0.573156     0.293880  Biso 1.000000     H
    H   1.0     0.235051     0.578007     0.297394  Biso 1.000000     H
    H   1.0     0.292003     0.757011     0.460759  Biso 1.000000     H
    H   1.0     0.275252     0.621065     0.842919  Biso 1.000000     H
    H   1.0     0.929525     0.732482     0.839056  Biso 1.000000     H
    H   1.0     0.987945     0.681099     0.936429  Biso 1.000000     H
    H   1.0     0.301283     0.639150     0.728186  Biso 1.000000     H
    H   1.0     0.235829     0.682802     0.626400  Biso 1.000000     H
    H   1.0     0.961821     0.757280     0.725885  Biso 1.000000     H
    C   1.0     0.490478     0.194481     0.587151  Biso 1.000000     C
    C   1.0     0.462660     0.115960     0.661684  Biso 1.000000     C
    C   1.0     0.373316     0.088858     0.545806  Biso 1.000000     C
    C   1.0     0.384227     0.221114     0.683384  Biso 1.000000     C
    C   1.0     0.270214     0.116730     0.640855  Biso 1.000000     C
    C   1.0     0.294414     0.194314     0.567426  Biso 1.000000     C
    C   1.0     0.930036     0.894904     0.501496  Biso 1.000000     C
    C   1.0     0.972098     0.976077     0.431813  Biso 1.000000     C
    C   1.0     0.045809    -0.000348     0.551047  Biso 1.000000     C
    C   1.0     0.050064     0.870495     0.412070  Biso 1.000000     C
    C   1.0     0.162056     0.973752     0.462540  Biso 1.000000     C
    C   1.0     0.123605     0.893769     0.531502  Biso 1.000000     C
    C   1.0     0.600901     0.956965     0.436929  Biso 1.000000     C
    C   1.0     0.534021     0.905324     0.380497  Biso 1.000000     C
    C   1.0     0.580983     0.852415     0.341528  Biso 1.000000     C
    C   1.0     0.517572     0.802279     0.289902  Biso 1.000000     C
    C   1.0     0.402083     0.805917     0.278634  Biso 1.000000     C
    C   1.0     0.356018     0.861139     0.318861  Biso 1.000000     C
    C   1.0     0.420252     0.909567     0.368016  Biso 1.000000     C
    C   1.0     0.564136     0.747857     0.248898  Biso 1.000000     C
    C   1.0     0.500392     0.699651     0.199430  Biso 1.000000     C
    C   1.0     0.386033     0.702473     0.188514  Biso 1.000000     C
    C   1.0     0.338489     0.754798     0.227953  Biso 1.000000     C
    C   1.0     0.318699     0.648039     0.134947  Biso 1.000000     C
    C   1.0     0.754901     0.136066     0.471623  Biso 1.000000     C
    C   1.0     0.784608     0.193057     0.437560  Biso 1.000000     C
    C   1.0     0.879797     0.193104     0.402700  Biso 1.000000     C
    C   1.0     0.910441     0.246819     0.373870  Biso 1.000000     C
    C   1.0     0.848567     0.303810     0.379046  Biso 1.000000     C
    C   1.0     0.752383     0.304017     0.414307  Biso 1.000000     C
    C   1.0     0.721658     0.247349     0.442035  Biso 1.000000     C
    C   1.0     0.879412     0.360754     0.351717  Biso 1.000000     C
    C   1.0     0.820814     0.417132     0.361083  Biso 1.000000     C
    C   1.0     0.726807     0.417636     0.397115  Biso 1.000000     C
    C   1.0     0.692463     0.361954     0.422100  Biso 1.000000     C
    C   1.0     0.860477     0.478384     0.335834  Biso 1.000000     C
    C   1.0     0.283968     0.417361     0.709473  Biso 1.000000     C
    C   1.0     0.164243     0.420421     0.710618  Biso 1.000000     C
    C   1.0     0.092425     0.374545     0.662631  Biso 1.000000     C
    C   1.0     0.978411     0.376067     0.662998  Biso 1.000000     C
    C   1.0     0.937867     0.424973     0.715385  Biso 1.000000     C
    C   1.0     0.013516     0.472191     0.763189  Biso 1.000000     C
    C   1.0     0.123978     0.470526     0.760539  Biso 1.000000     C
    C   1.0     0.902888     0.330379     0.613761  Biso 1.000000     C
    C   1.0     0.792438     0.332043     0.616331  Biso 1.000000     C
    C   1.0     0.752093     0.378907     0.669168  Biso 1.000000     C
    C   1.0     0.823867     0.424387     0.717589  Biso 1.000000     C
    C   1.0     0.632309     0.380007     0.671796  Biso 1.000000     C
    C   1.0     0.666389     0.952822     0.614166  Biso 1.000000     C
    C   1.0     0.635230     0.895222     0.647094  Biso 1.000000     C
    C   1.0     0.699145     0.841539     0.644451  Biso 1.000000     C
    C   1.0     0.666362     0.784387     0.671037  Biso 1.000000     C
    C   1.0     0.567709     0.783891     0.703818  Biso 1.000000     C
    C   1.0     0.504725     0.840206     0.707046  Biso 1.000000     C
    C   1.0     0.536844     0.893998     0.678766  Biso 1.000000     C
    C   1.0     0.726844     0.726743     0.664727  Biso 1.000000     C
    C   1.0     0.691136     0.670943     0.689179  Biso 1.000000     C
    C   1.0     0.595009     0.671015     0.723192  Biso 1.000000     C
    C   1.0     0.535521     0.726976     0.730800  Biso 1.000000     C
    C   1.0     0.554377     0.610065     0.748614  Biso 1.000000     C
    C   1.0     0.990884     0.587357     0.194455  Biso 1.000000     C
    C   1.0     0.962133     0.662167     0.116181  Biso 1.000000     C
    C   1.0     0.873652     0.546134     0.088730  Biso 1.000000     C
    C   1.0     0.883866     0.683484     0.221166  Biso 1.000000     C
    C   1.0     0.769805     0.641054     0.116685  Biso 1.000000     C
    C   1.0     0.794911     0.567380     0.194027  Biso 1.000000     C
    C   1.0     0.429791     0.501362     0.894827  Biso 1.000000     C
    C   1.0     0.472709     0.431474     0.975834  Biso 1.000000     C
    C   1.0     0.545459     0.550860    -0.000265  Biso 1.000000     C
    C   1.0     0.550508     0.412057     0.870436  Biso 1.000000     C
    C   1.0     0.662421     0.462483     0.973818  Biso 1.000000     C
    C   1.0     0.623141     0.531628     0.894007  Biso 1.000000     C
    C   1.0     0.100889     0.437351     0.956615  Biso 1.000000     C
    C   1.0     0.033927     0.380818     0.905130  Biso 1.000000     C
    C   1.0     0.080789     0.341650     0.852353  Biso 1.000000     C
    C   1.0     0.017358     0.289951     0.802311  Biso 1.000000     C
    C   1.0     0.901921     0.278728     0.805935  Biso 1.000000     C
    C   1.0     0.855985     0.319103     0.861071  Biso 1.000000     C
    C   1.0     0.920225     0.368398     0.909362  Biso 1.000000     C
    C   1.0     0.063848     0.248830     0.747988  Biso 1.000000     C
    C   1.0     0.000000     0.199318     0.699840  Biso 1.000000     C
    C   1.0     0.885772     0.188436     0.702628  Biso 1.000000     C
    C   1.0     0.838311     0.227962     0.754888  Biso 1.000000     C
    C   1.0     0.818503     0.134812     0.648193  Biso 1.000000     C
    C   1.0     0.255787     0.471155     0.135579  Biso 1.000000     C
    C   1.0     0.285010     0.437213     0.192812  Biso 1.000000     C
    C   1.0     0.380403     0.402367     0.193406  Biso 1.000000     C
    C   1.0     0.410800     0.373599     0.247262  Biso 1.000000     C
    C   1.0     0.348500     0.378879     0.303880  Biso 1.000000     C
    C   1.0     0.252129     0.414155     0.303590  Biso 1.000000     C
    C   1.0     0.221610     0.441775     0.246733  Biso 1.000000     C
    C   1.0     0.379229     0.351651     0.360956  Biso 1.000000     C
    C   1.0     0.320351     0.361098     0.417038  Biso 1.000000     C
    C   1.0     0.226139     0.397137     0.417086  Biso 1.000000     C
    C   1.0     0.191881     0.422020     0.361231  Biso 1.000000     C
    C   1.0     0.360166     0.335900     0.478374  Biso 1.000000     C
    C   1.0     0.784077     0.709514     0.417127  Biso 1.000000     C
    C   1.0     0.664363     0.710577     0.420174  Biso 1.000000     C
    C   1.0     0.592586     0.662485     0.374388  Biso 1.000000     C
    C   1.0     0.478604     0.662822     0.375944  Biso 1.000000     C
    C   1.0     0.438040     0.715312     0.424742  Biso 1.000000     C
    C   1.0     0.513636     0.763218     0.471864  Biso 1.000000     C
    C   1.0     0.624099     0.760597     0.470176  Biso 1.000000     C
    C   1.0     0.403088     0.613484     0.330373  Biso 1.000000     C
    C   1.0     0.292633     0.616031     0.332086  Biso 1.000000     C
    C   1.0     0.252254     0.668974     0.378836  Biso 1.000000     C
    C   1.0     0.324029     0.717487     0.424197  Biso 1.000000     C
    C   1.0     0.132470     0.671619     0.379993  Biso 1.000000     C
    C   1.0     0.166464     0.614753     0.953048  Biso 1.000000     C
    C   1.0     0.135365     0.647702     0.895388  Biso 1.000000     C
    C   1.0     0.199305     0.644850     0.841885  Biso 1.000000     C
    C   1.0     0.166568     0.671431     0.784663  Biso 1.000000     C
    C   1.0     0.067837     0.704335     0.783866  Biso 1.000000     C
    C   1.0     0.004798     0.707764     0.839994  Biso 1.000000     C
    C   1.0     0.036948     0.679553     0.893900  Biso 1.000000     C
    C   1.0     0.227175     0.664964     0.727239  Biso 1.000000     C
    C   1.0     0.191436     0.689325     0.671311  Biso 1.000000     C
    C   1.0     0.095200     0.723425     0.671076  Biso 1.000000     C
    C   1.0     0.035617     0.731214     0.726832  Biso 1.000000     C
    C   1.0     0.054448     0.748759     0.610029  Biso 1.000000     C
    N   1.0     0.476323     0.121007     0.589388  Biso 1.000000     N
    N   1.0     0.395442     0.229695     0.611945  Biso 1.000000     N
    N   1.0     0.368727     0.149328     0.686048  Biso 1.000000     N
    N   1.0     0.278357     0.122231     0.569462  Biso 1.000000     N
    N   1.0     0.947407     0.968952     0.501859  Biso 1.000000     N
    N   1.0     0.027547     0.859827     0.481371  Biso 1.000000     N
    N   1.0     0.068645     0.942809     0.412026  Biso 1.000000     N
    N   1.0     0.142945     0.966305     0.532035  Biso 1.000000     N
    N   1.0     0.976448     0.589808     0.121057  Biso 1.000000     N
    N   1.0     0.895722     0.611972     0.229584  Biso 1.000000     N
    N   1.0     0.868083     0.686330     0.149462  Biso 1.000000     N
    N   1.0     0.778602     0.569599     0.122027  Biso 1.000000     N
    N   1.0     0.447405     0.501557     0.968808  Biso 1.000000     N
    N   1.0     0.527371     0.481411     0.859873  Biso 1.000000     N
    N   1.0     0.569319     0.411873     0.942688  Biso 1.000000     N
    N   1.0     0.642689     0.532024     0.966484  Biso 1.000000     N
    O   1.0     0.550637     0.003789     0.470290  Biso 1.000000     O
    O   1.0     0.701974     0.949920     0.448224  Biso 1.000000     O
    O   1.0     0.371032     0.608109     0.094503  Biso 1.000000     O
    O   1.0     0.215222     0.644940     0.133935  Biso 1.000000     O
    O   1.0     0.671582     0.140790     0.504968  Biso 1.000000     O
    O   1.0     0.815835     0.087465     0.466483  Biso 1.000000     O
    O   1.0     0.926428     0.474957     0.291578  Biso 1.000000     O
    O   1.0     0.823888     0.535652     0.363901  Biso 1.000000     O
    O   1.0     0.595991     0.995117     0.609725  Biso 1.000000     O
    O   1.0     0.345182     0.472032     0.737763  Biso 1.000000     O
    O   1.0     0.318354     0.360829     0.682548  Biso 1.000000     O
    O   1.0     0.571423     0.352873     0.616575  Biso 1.000000     O
    O   1.0     0.597233     0.406019     0.728269  Biso 1.000000     O
    O   1.0     0.759404     0.955306     0.591416  Biso 1.000000     O
    O   1.0     0.592569     0.552805     0.722401  Biso 1.000000     O
    O   1.0     0.486272     0.613854     0.791661  Biso 1.000000     O
    O   1.0     0.050519     0.471765     0.002664  Biso 1.000000     O
    O   1.0     0.202319     0.447622     0.950188  Biso 1.000000     O
    O   1.0     0.871153     0.094645     0.608133  Biso 1.000000     O
    O   1.0     0.715022     0.133406     0.645127  Biso 1.000000     O
    O   1.0     0.171360     0.503679     0.139077  Biso 1.000000     O
    O   1.0     0.318365     0.466675     0.087988  Biso 1.000000     O
    O   1.0     0.426252     0.291558     0.475056  Biso 1.000000     O
    O   1.0     0.323592     0.364053     0.535523  Biso 1.000000     O
    O   1.0     0.096508     0.611307     0.995616  Biso 1.000000     O
    O   1.0     0.845386     0.737809     0.471800  Biso 1.000000     O
    O   1.0     0.818371     0.682629     0.360636  Biso 1.000000     O
    O   1.0     0.071719     0.616394     0.352845  Biso 1.000000     O
    O   1.0     0.097258     0.728132     0.406025  Biso 1.000000     O
    O   1.0     0.258911     0.591049     0.955319  Biso 1.000000     O
    O   1.0     0.092679     0.722412     0.552911  Biso 1.000000     O
    O   1.0     0.986236     0.791913     0.613665  Biso 1.000000     O
   Zn   1.0     0.615782     0.072952     0.559511  Biso 1.000000    Zn
   Zn   1.0     0.805175     0.016480     0.526657  Biso 1.000000    Zn
   Zn   1.0     0.412007     0.333282     0.605837  Biso 1.000000    Zn
   Zn   1.0     0.504891     0.483630     0.755370  Biso 1.000000    Zn
   Zn   1.0     0.115985     0.560457     0.072869  Biso 1.000000    Zn
   Zn   1.0     0.305212     0.525942     0.016435  Biso 1.000000    Zn
   Zn   1.0     0.912174     0.605808     0.333173  Biso 1.000000    Zn
   Zn   1.0     0.005034     0.755332     0.483505  Biso 1.000000    Zn
