#======================================================================

# CRYSTAL DATA

#----------------------------------------------------------------------

data_VESTA_phase_1


_pd_phase_name                         MOF
_cell_length_a                         12.39600
_cell_length_b                         20.15300
_cell_length_c                         20.22500
_cell_angle_alpha                      102.71700
_cell_angle_beta                       94.69800
_cell_angle_gamma                      94.47400
_symmetry_space_group_name_H-M         "P 1"
_symmetry_Int_Tables_number            1

loop_
_symmetry_equiv_pos_as_xyz
   "x, y, z"

loop_
   _atom_site_label
   _atom_site_occupancy
   _atom_site_fract_x
   _atom_site_fract_y
   _atom_site_fract_z
   _atom_site_adp_type
   _atom_site_B_iso_or_equiv
   _atom_site_type_symbol
    H   1.0     0.521494     0.727223     0.281061  Biso 1.000000     H
    H   1.0     0.437673     0.650079     0.243188  Biso 1.000000     H
    H   1.0     0.301223     0.837182     0.281385  Biso 1.000000     H
    H   1.0     0.442994     0.834317     0.303266  Biso 1.000000     H
    H   1.0     0.318391     0.797332     0.097339  Biso 1.000000     H
    H   1.0     0.228453     0.815109     0.162650  Biso 1.000000     H
    H   1.0     0.188625     0.733306     0.229362  Biso 1.000000     H
    H   1.0     0.246616     0.653264     0.212417  Biso 1.000000     H
    H   1.0     0.363943     0.628319     0.125075  Biso 1.000000     H
    H   1.0     0.395783     0.688818     0.075080  Biso 1.000000     H
    H   1.0     0.509313     0.794397     0.126598  Biso 1.000000     H
    H   1.0     0.563838     0.809849     0.213518  Biso 1.000000     H
    H   1.0     0.038675     0.597055     0.182454  Biso 1.000000     H
    H   1.0     0.058266     0.648237     0.121834  Biso 1.000000     H
    H   1.0     0.858916     0.462157     0.065250  Biso 1.000000     H
    H   1.0     0.924828     0.489838     0.149492  Biso 1.000000     H
    H   1.0     0.968004     0.610965     0.007278  Biso 1.000000     H
    H   1.0     0.884313     0.531755     0.983020  Biso 1.000000     H
    H   1.0     0.198904     0.462945     0.100638  Biso 1.000000     H
    H   1.0     0.121299     0.489953     0.170010  Biso 1.000000     H
    H   1.0     0.162237     0.612078     0.029115  Biso 1.000000     H
    H   1.0     0.222387     0.533148     0.018928  Biso 1.000000     H
    H   1.0     0.965712     0.425719     0.970288  Biso 1.000000     H
    H   1.0     0.109732     0.425999     0.985891  Biso 1.000000     H
    H   1.0     0.651407     0.841479     0.061011  Biso 1.000000     H
    H   1.0     0.625655     0.956978     0.044298  Biso 1.000000     H
    H   1.0     0.690416     0.058534     0.000965  Biso 1.000000     H
    H   1.0     0.960395     0.956278     0.922577  Biso 1.000000     H
    H   1.0     0.990628     0.841508     0.943948  Biso 1.000000     H
    H   1.0     0.931334     0.743132     0.992942  Biso 1.000000     H
    H   1.0     0.799101     0.446881     0.215509  Biso 1.000000     H
    H   1.0     0.440811     0.406619     0.302534  Biso 1.000000     H
    H   1.0     0.483039     0.509321     0.256464  Biso 1.000000     H
    H   1.0     0.852496     0.337348     0.237836  Biso 1.000000     H
    H   1.0     0.813154     0.236165     0.287514  Biso 1.000000     H
    H   1.0     0.497453     0.298661     0.329764  Biso 1.000000     H
    H   1.0     0.751250     0.826883     0.331225  Biso 1.000000     H
    H   1.0     0.767784     0.928606     0.428512  Biso 1.000000     H
    H   1.0     0.170857     0.925786     0.452351  Biso 1.000000     H
    H   1.0     0.153725     0.820787     0.358262  Biso 1.000000     H
    H   1.0     0.036376     0.733757     0.268972  Biso 1.000000     H
    H   1.0     0.885204     0.015322     0.518816  Biso 1.000000     H
    H   1.0     0.685950     0.384124     0.105497  Biso 1.000000     H
    H   1.0     0.487788     0.385417     0.113227  Biso 1.000000     H
    H   1.0     0.298070     0.340296     0.065953  Biso 1.000000     H
    H   1.0     0.628994     0.226216     0.921336  Biso 1.000000     H
    H   1.0     0.438191     0.177793     0.876015  Biso 1.000000     H
    H   1.0     0.240331     0.178964     0.884180  Biso 1.000000     H
    H   1.0     0.021039     0.282071     0.726076  Biso 1.000000     H
    H   1.0     0.937176     0.243884     0.649159  Biso 1.000000     H
    H   1.0     0.800961     0.283097     0.835396  Biso 1.000000     H
    H   1.0     0.942682     0.304859     0.832673  Biso 1.000000     H
    H   1.0     0.818569     0.098415     0.796453  Biso 1.000000     H
    H   1.0     0.728485     0.164074     0.813733  Biso 1.000000     H
    H   1.0     0.688319     0.230643     0.731725  Biso 1.000000     H
    H   1.0     0.746339     0.213248     0.652113  Biso 1.000000     H
    H   1.0     0.863765     0.125459     0.627820  Biso 1.000000     H
    H   1.0     0.895892     0.075560     0.688427  Biso 1.000000     H
    H   1.0     0.009407     0.127498     0.793712  Biso 1.000000     H
    H   1.0     0.063728     0.214635     0.808862  Biso 1.000000     H
    H   1.0     0.538374     0.182760     0.596671  Biso 1.000000     H
    H   1.0     0.558376     0.122068     0.647864  Biso 1.000000     H
    H   1.0     0.358585     0.065152     0.462199  Biso 1.000000     H
    H   1.0     0.424332     0.149625     0.489751  Biso 1.000000     H
    H   1.0     0.468351     0.007147     0.610820  Biso 1.000000     H
    H   1.0     0.384492     0.982783     0.531803  Biso 1.000000     H
    H   1.0     0.698528     0.100280     0.463342  Biso 1.000000     H
    H   1.0     0.620762     0.169990     0.490029  Biso 1.000000     H
    H   1.0     0.662453     0.028902     0.612142  Biso 1.000000     H
    H   1.0     0.722511     0.018435     0.533583  Biso 1.000000     H
    H   1.0     0.465558     0.969750     0.426248  Biso 1.000000     H
    H   1.0     0.609546     0.985210     0.426583  Biso 1.000000     H
    H   1.0     0.151155     0.060954     0.839554  Biso 1.000000     H
    H   1.0     0.124889     0.044615     0.954502  Biso 1.000000     H
    H   1.0     0.189860     0.002002     0.056495  Biso 1.000000     H
    H   1.0     0.461086     0.923296     0.956154  Biso 1.000000     H
    H   1.0     0.491588     0.944178     0.841649  Biso 1.000000     H
    H   1.0     0.432139     0.992736     0.743010  Biso 1.000000     H
    H   1.0     0.299138     0.216253     0.447934  Biso 1.000000     H
    H   1.0     0.940413     0.303396     0.406356  Biso 1.000000     H
    H   1.0     0.982679     0.257521     0.509043  Biso 1.000000     H
    H   1.0     0.352623     0.238237     0.338779  Biso 1.000000     H
    H   1.0     0.312953     0.287382     0.237418  Biso 1.000000     H
    H   1.0    -0.003025     0.330198     0.298711  Biso 1.000000     H
    H   1.0     0.250996     0.331800     0.826562  Biso 1.000000     H
    H   1.0     0.267613     0.429293     0.928164  Biso 1.000000     H
    H   1.0     0.670592     0.452882     0.925519  Biso 1.000000     H
    H   1.0     0.653294     0.358944     0.820563  Biso 1.000000     H
    H   1.0     0.535922     0.269499     0.733641  Biso 1.000000     H
    H   1.0     0.385138     0.519517     0.014935  Biso 1.000000     H
    H   1.0     0.185630     0.105436     0.385027  Biso 1.000000     H
    H   1.0     0.987411     0.112650     0.386904  Biso 1.000000     H
    H   1.0     0.797690     0.065521     0.341441  Biso 1.000000     H
    H   1.0     0.129032     0.922933     0.224843  Biso 1.000000     H
    H   1.0     0.938329     0.877618     0.176428  Biso 1.000000     H
    H   1.0     0.740385     0.885505     0.177883  Biso 1.000000     H
    C   1.0     0.450199     0.704920     0.244903  Biso 1.000000     C
    C   1.0     0.372709     0.810928     0.266575  Biso 1.000000     C
    C   1.0     0.300320     0.789280     0.147397  Biso 1.000000     C
    C   1.0     0.261116     0.708118     0.214341  Biso 1.000000     C
    C   1.0     0.377638     0.682911     0.125811  Biso 1.000000     C
    C   1.0     0.493071     0.787334     0.177154  Biso 1.000000     C
    C   1.0     0.048273     0.595674     0.128685  Biso 1.000000     C
    C   1.0     0.933190     0.488818     0.095755  Biso 1.000000     C
    C   1.0     0.959136     0.558121     0.013298  Biso 1.000000     C
    C   1.0     0.128961     0.490425     0.116419  Biso 1.000000     C
    C   1.0     0.151338     0.559206     0.035163  Biso 1.000000     C
    C   1.0     0.039422     0.453329     0.000000  Biso 1.000000     C
    C   1.0     0.756405     0.728143     0.061543  Biso 1.000000     C
    C   1.0     0.787706     0.786603     0.030239  Biso 1.000000     C
    C   1.0     0.725795     0.841603     0.035822  Biso 1.000000     C
    C   1.0     0.758261     0.898914     0.009774  Biso 1.000000     C
    C   1.0     0.698801     0.957250     0.017752  Biso 1.000000     C
    C   1.0     0.734120     0.013058     0.993575  Biso 1.000000     C
    C   1.0     0.887599     0.955898     0.949359  Biso 1.000000     C
    C   1.0     0.916630     0.841289     0.969699  Biso 1.000000     C
    C   1.0     0.884129     0.786905     0.996658  Biso 1.000000     C
    C   1.0     0.829115     0.012468     0.958552  Biso 1.000000     C
    C   1.0     0.869609     0.073362     0.933450  Biso 1.000000     C
    C   1.0     0.855361     0.898701     0.975498  Biso 1.000000     C
    C   1.0     0.668562     0.544529     0.203067  Biso 1.000000     C
    C   1.0     0.644719     0.484480     0.233664  Biso 1.000000     C
    C   1.0     0.721272     0.438078     0.235078  Biso 1.000000     C
    C   1.0     0.700010     0.378966     0.260473  Biso 1.000000     C
    C   1.0     0.597116     0.367631     0.286094  Biso 1.000000     C
    C   1.0     0.519689     0.415883     0.284168  Biso 1.000000     C
    C   1.0     0.542678     0.472746     0.258585  Biso 1.000000     C
    C   1.0     0.776696     0.330066     0.260434  Biso 1.000000     C
    C   1.0     0.754589     0.273687     0.286858  Biso 1.000000     C
    C   1.0     0.575797     0.308152     0.311145  Biso 1.000000     C
    C   1.0     0.652996     0.262175     0.312396  Biso 1.000000     C
    C   1.0     0.630826     0.199045     0.338816  Biso 1.000000     C
    C   1.0     0.820474     0.724460     0.237949  Biso 1.000000     C
    C   1.0     0.886935     0.775789     0.294684  Biso 1.000000     C
    C   1.0     0.839197     0.825798     0.337718  Biso 1.000000     C
    C   1.0     0.902805     0.875903     0.389245  Biso 1.000000     C
    C   1.0     0.855911     0.927674     0.434249  Biso 1.000000     C
    C   1.0     0.082617     0.925654     0.447223  Biso 1.000000     C
    C   1.0     0.018903     0.874862     0.396445  Biso 1.000000     C
    C   1.0     0.065725     0.822446     0.352166  Biso 1.000000     C
    C   1.0     0.001534     0.774349     0.302894  Biso 1.000000     C
    C   1.0     0.034694     0.975112     0.490811  Biso 1.000000     C
    C   1.0     0.102002     0.028800     0.544934  Biso 1.000000     C
    C   1.0     0.919914     0.975491     0.483867  Biso 1.000000     C
    C   1.0     0.668834     0.305538     0.011967  Biso 1.000000     C
    C   1.0     0.788555     0.304907     0.009229  Biso 1.000000     C
    C   1.0     0.628500     0.350350     0.066871  Biso 1.000000     C
    C   1.0     0.518518     0.350911     0.071044  Biso 1.000000     C
    C   1.0     0.329707     0.306196     0.023900  Biso 1.000000     C
    C   1.0     0.138747     0.263529     0.978779  Biso 1.000000     C
    C   1.0     0.443219     0.306184     0.021057  Biso 1.000000     C
    C   1.0     0.483537     0.259760     0.966030  Biso 1.000000     C
    C   1.0     0.597188     0.261238     0.962577  Biso 1.000000     C
    C   1.0     0.407891     0.213756     0.917288  Biso 1.000000     C
    C   1.0     0.257905     0.261572     0.974826  Biso 1.000000     C
    C   1.0     0.297811     0.214280     0.921619  Biso 1.000000     C
    C   1.0     0.949831     0.245810     0.703872  Biso 1.000000     C
    C   1.0     0.872462     0.268047     0.809405  Biso 1.000000     C
    C   1.0     0.800380     0.148593     0.788184  Biso 1.000000     C
    C   1.0     0.760861     0.215396     0.706849  Biso 1.000000     C
    C   1.0     0.877582     0.126416     0.682293  Biso 1.000000     C
    C   1.0     0.993049     0.178177     0.786439  Biso 1.000000     C
    C   1.0     0.548166     0.128820     0.595425  Biso 1.000000     C
    C   1.0     0.432845     0.095710     0.488816  Biso 1.000000     C
    C   1.0     0.459302     0.013102     0.558113  Biso 1.000000     C
    C   1.0     0.628592     0.116229     0.490609  Biso 1.000000     C
    C   1.0     0.651442     0.034857     0.559394  Biso 1.000000     C
    C   1.0     0.539317     0.000000     0.453752  Biso 1.000000     C
    C   1.0     0.256521     0.061294     0.727197  Biso 1.000000     C
    C   1.0     0.287976     0.030053     0.785602  Biso 1.000000     C
    C   1.0     0.225758     0.035779     0.840125  Biso 1.000000     C
    C   1.0     0.258235     0.009970     0.897515  Biso 1.000000     C
    C   1.0     0.198386     0.018204     0.955350  Biso 1.000000     C
    C   1.0     0.233763     0.994423     0.011357  Biso 1.000000     C
    C   1.0     0.387991     0.950000     0.955264  Biso 1.000000     C
    C   1.0     0.417288     0.969839     0.840956  Biso 1.000000     C
    C   1.0     0.384720     0.996563     0.786442  Biso 1.000000     C
    C   1.0     0.329144     0.959486     0.011383  Biso 1.000000     C
    C   1.0     0.369495     0.934869     0.072517  Biso 1.000000     C
    C   1.0     0.355722     0.975831     0.897915  Biso 1.000000     C
    C   1.0     0.168562     0.203908     0.544815  Biso 1.000000     C
    C   1.0     0.144558     0.234544     0.484863  Biso 1.000000     C
    C   1.0     0.221202     0.235843     0.438830  Biso 1.000000     C
    C   1.0     0.199894     0.261086     0.379722  Biso 1.000000     C
    C   1.0     0.096836     0.286715     0.367991  Biso 1.000000     C
    C   1.0     0.019363     0.284997     0.415906  Biso 1.000000     C
    C   1.0     0.042386     0.259517     0.472767  Biso 1.000000     C
    C   1.0     0.276642     0.260812     0.331169  Biso 1.000000     C
    C   1.0     0.254375     0.286967     0.274703  Biso 1.000000     C
    C   1.0     0.075416     0.311542     0.308468  Biso 1.000000     C
    C   1.0     0.152609     0.312510     0.262782  Biso 1.000000     C
    C   1.0     0.130385     0.338640     0.199570  Biso 1.000000     C
    C   1.0     0.320262     0.238250     0.724398  Biso 1.000000     C
    C   1.0     0.386594     0.295202     0.775598  Biso 1.000000     C
    C   1.0     0.338897     0.338321     0.825491  Biso 1.000000     C
    C   1.0     0.402514     0.389897     0.875564  Biso 1.000000     C
    C   1.0     0.355717     0.434945     0.927287  Biso 1.000000     C
    C   1.0     0.582381     0.447796     0.925368  Biso 1.000000     C
    C   1.0     0.518595     0.397081     0.874558  Biso 1.000000     C
    C   1.0     0.565345     0.352798     0.822199  Biso 1.000000     C
    C   1.0     0.501155     0.303463     0.774169  Biso 1.000000     C
    C   1.0     0.534561     0.491380     0.974821  Biso 1.000000     C
    C   1.0     0.602004     0.545410     0.028555  Biso 1.000000     C
    C   1.0     0.419785     0.484523     0.975129  Biso 1.000000     C
    C   1.0     0.168729     0.012732     0.305214  Biso 1.000000     C
    C   1.0     0.288458     0.010141     0.304198  Biso 1.000000     C
    C   1.0     0.128263     0.067032     0.350877  Biso 1.000000     C
    C   1.0     0.018219     0.070920     0.351766  Biso 1.000000     C
    C   1.0     0.829447     0.023869     0.306786  Biso 1.000000     C
    C   1.0     0.638565     0.979151     0.263371  Biso 1.000000     C
    C   1.0     0.943011     0.021255     0.306574  Biso 1.000000     C
    C   1.0     0.983455     0.966857     0.259376  Biso 1.000000     C
    C   1.0     0.097123     0.963680     0.260495  Biso 1.000000     C
    C   1.0     0.907911     0.918446     0.212925  Biso 1.000000     C
    C   1.0     0.757761     0.975255     0.261555  Biso 1.000000     C
    C   1.0     0.797801     0.922621     0.213602  Biso 1.000000     C
    N   1.0     0.475406     0.712943     0.175357  Biso 1.000000     N
    N   1.0     0.353864     0.738322     0.265203  Biso 1.000000     N
    N   1.0     0.280779     0.716445     0.145396  Biso 1.000000     N
    N   1.0     0.395760     0.822553     0.197921  Biso 1.000000     N
    N   1.0     0.945947     0.560227     0.087031  Biso 1.000000     N
    N   1.0     0.028382     0.451868     0.074404  Biso 1.000000     N
    N   1.0     0.143335     0.560630     0.107958  Biso 1.000000     N
    N   1.0     0.053479     0.523117     0.991870  Biso 1.000000     N
    N   1.0     0.975268     0.176092     0.712202  Biso 1.000000     N
    N   1.0     0.853494     0.266408     0.736952  Biso 1.000000     N
    N   1.0     0.780726     0.146297     0.715503  Biso 1.000000     N
    N   1.0     0.895734     0.199255     0.821347  Biso 1.000000     N
    N   1.0     0.445842     0.087069     0.560060  Biso 1.000000     N
    N   1.0     0.528046     0.074124     0.452104  Biso 1.000000     N
    N   1.0     0.643198     0.107877     0.560638  Biso 1.000000     N
    N   1.0     0.553629     0.991486     0.523368  Biso 1.000000     N
    O   1.0     0.819309     0.680313     0.056374  Biso 1.000000     O
    O   1.0     0.670679     0.730370     0.092515  Biso 1.000000     O
    O   1.0     0.829257     0.130505     0.958589  Biso 1.000000     O
    O   1.0     0.939476     0.069620     0.891531  Biso 1.000000     O
    O   1.0     0.759667     0.548949     0.178234  Biso 1.000000     O
    O   1.0     0.596687     0.586439     0.202401  Biso 1.000000     O
    O   1.0     0.706603     0.169872     0.360484  Biso 1.000000     O
    O   1.0     0.527386     0.177327     0.336147  Biso 1.000000     O
    O   1.0     0.873511     0.684429     0.197629  Biso 1.000000     O
    O   1.0     0.717310     0.725002     0.233214  Biso 1.000000     O
    O   1.0     0.051082     0.063975     0.590499  Biso 1.000000     O
    O   1.0     0.204310     0.035884     0.541330  Biso 1.000000     O
    O   1.0     0.106622     0.316320     0.016408  Biso 1.000000     O
    O   1.0     0.076260     0.212909     0.942492  Biso 1.000000     O
    O   1.0     0.848475     0.333187     0.064229  Biso 1.000000     O
    O   1.0     0.824251     0.277918     0.952937  Biso 1.000000     O
    O   1.0     0.319433     0.056103     0.679684  Biso 1.000000     O
    O   1.0     0.170541     0.092306     0.729221  Biso 1.000000     O
    O   1.0     0.329518     0.960953     0.129251  Biso 1.000000     O
    O   1.0     0.438992     0.892395     0.069439  Biso 1.000000     O
    O   1.0     0.260078     0.179330     0.549608  Biso 1.000000     O
    O   1.0     0.096519     0.202893     0.586254  Biso 1.000000     O
    O   1.0     0.206134     0.360063     0.170527  Biso 1.000000     O
    O   1.0     0.026952     0.336020     0.177601  Biso 1.000000     O
    O   1.0     0.373389     0.197774     0.684596  Biso 1.000000     O
    O   1.0     0.217114     0.233501     0.724853  Biso 1.000000     O
    O   1.0     0.551180     0.591153     0.063747  Biso 1.000000     O
    O   1.0     0.704300     0.541572     0.035649  Biso 1.000000     O
    O   1.0     0.606119     0.015035     0.316931  Biso 1.000000     O
    O   1.0     0.576368     0.944577     0.211785  Biso 1.000000     O
    O   1.0     0.348365     0.064875     0.333679  Biso 1.000000     O
    O   1.0     0.324161     0.954197     0.275760  Biso 1.000000     O
   Zn   1.0     0.805512     0.608890     0.113899  Biso 1.000000    Zn
   Zn   1.0     0.616261     0.664073     0.150209  Biso 1.000000    Zn
   Zn   1.0     0.916743     0.200016     0.926779  Biso 1.000000    Zn
   Zn   1.0     0.008781     0.349565     0.085802  Biso 1.000000    Zn
   Zn   1.0     0.305549     0.114047     0.608709  Biso 1.000000    Zn
   Zn   1.0     0.116116     0.150520     0.663700  Biso 1.000000    Zn
   Zn   1.0     0.416793     0.927932     0.198184  Biso 1.000000    Zn
   Zn   1.0     0.508800     0.085327     0.349841  Biso 1.000000    Zn
