#======================================================================

# CRYSTAL DATA

#----------------------------------------------------------------------

data_VESTA_phase_1


_pd_phase_name                         MOF
_cell_length_a                         10.81600
_cell_length_b                         15.94000
_cell_length_c                         18.49700
_cell_angle_alpha                      114.39300
_cell_angle_beta                       107.11900
_cell_angle_gamma                      93.92200
_symmetry_space_group_name_H-M         "P 1"
_symmetry_Int_Tables_number            1

loop_
_symmetry_equiv_pos_as_xyz
   "x, y, z"

loop_
   _atom_site_label
   _atom_site_occupancy
   _atom_site_fract_x
   _atom_site_fract_y
   _atom_site_fract_z
   _atom_site_adp_type
   _atom_site_B_iso_or_equiv
   _atom_site_type_symbol
    H   1.0     0.568218     0.315162     0.624304  Biso 1.000000     H
    H   1.0     0.411347     0.497660     0.037345  Biso 1.000000     H
    H   1.0     0.662042     0.362297     0.927385  Biso 1.000000     H
    H   1.0     0.688656     0.295059     0.830726  Biso 1.000000     H
    H   1.0     0.128257     0.979646     0.669920  Biso 1.000000     H
    H   1.0     0.426621     0.363061     0.836550  Biso 1.000000     H
    H   1.0     0.318617     0.251755     0.758299  Biso 1.000000     H
    H   1.0     0.807022     0.174250     0.137332  Biso 1.000000     H
    H   1.0     0.256289     0.368773     0.728612  Biso 1.000000     H
    H   1.0     0.728772     0.127110    -0.018685  Biso 1.000000     H
    H   1.0     0.528173    -0.012626     0.670170  Biso 1.000000     H
    H   1.0     0.062978     0.810458     0.562347  Biso 1.000000     H
    H   1.0     0.840219     0.418184     0.037455  Biso 1.000000     H
    H   1.0     0.923337     0.463425     0.191448  Biso 1.000000     H
    H   1.0     0.507537     0.207617     0.940140  Biso 1.000000     H
    H   1.0     0.344313     0.199782     0.873964  Biso 1.000000     H
    H   1.0     0.470290     0.385742     0.529206  Biso 1.000000     H
    H   1.0     0.376814     0.217911     0.018668  Biso 1.000000     H
    H   1.0     0.461250     0.819882     0.562386  Biso 1.000000     H
    H   1.0     0.288115     0.269115     0.136346  Biso 1.000000     H
    H   1.0     0.556988     0.103788     0.804671  Biso 1.000000     H
    H   1.0     0.526959     0.140029     0.722427  Biso 1.000000     H
    H   1.0     0.316765     0.546609     0.154515  Biso 1.000000     H
    H   1.0     0.158881     0.436803     0.632805  Biso 1.000000     H
    H   1.0     0.431760     0.684847     0.375826  Biso 1.000000     H
    H   1.0     0.588652     0.502383     0.962820  Biso 1.000000     H
    H   1.0     0.337928     0.637737     0.072758  Biso 1.000000     H
    H   1.0     0.311300     0.704982     0.169410  Biso 1.000000     H
    H   1.0     0.871701     0.020383     0.330210  Biso 1.000000     H
    H   1.0     0.573355     0.636988     0.163594  Biso 1.000000     H
    H   1.0     0.681351     0.748298     0.241841  Biso 1.000000     H
    H   1.0     0.193038     0.825754     0.862785  Biso 1.000000     H
    H   1.0     0.743685     0.631274     0.271511  Biso 1.000000     H
    H   1.0     0.271256     0.872904     0.000000  Biso 1.000000     H
    H   1.0     0.471791     0.000000     0.329967  Biso 1.000000     H
    H   1.0     0.937007     0.189569     0.437789  Biso 1.000000     H
    H   1.0     0.159726     0.581844     0.962676  Biso 1.000000     H
    H   1.0     0.076631     0.536592     0.808681  Biso 1.000000     H
    H   1.0     0.492426     0.792422     0.059999  Biso 1.000000     H
    H   1.0     0.655650     0.800257     0.126176  Biso 1.000000     H
    H   1.0     0.529703     0.614252     0.470909  Biso 1.000000     H
    H   1.0     0.623121     0.782114     0.981457  Biso 1.000000     H
    H   1.0     0.538739     0.180178     0.437756  Biso 1.000000     H
    H   1.0     0.711818     0.730904     0.863779  Biso 1.000000     H
    H   1.0     0.442957     0.896250     0.195468  Biso 1.000000     H
    H   1.0     0.473006     0.860014     0.277716  Biso 1.000000     H
    H   1.0     0.683235     0.453429     0.845651  Biso 1.000000     H
    H   1.0     0.841105     0.563226     0.367302  Biso 1.000000     H
    C   1.0     0.478144     0.341313     0.625234  Biso 1.000000     C
    C   1.0     0.382756     0.448320     0.059469  Biso 1.000000     C
    C   1.0     0.651020     0.290712     0.878324  Biso 1.000000     C
    C   1.0     0.200524     0.943549     0.646357  Biso 1.000000     C
    C   1.0     0.422712     0.291020     0.790678  Biso 1.000000     C
    C   1.0     0.814568     0.226763     0.114605  Biso 1.000000     C
    C   1.0     0.303251     0.371272     0.684805  Biso 1.000000     C
    C   1.0     0.770318     0.200623     0.028359  Biso 1.000000     C
    C   1.0     0.426228     0.949435     0.647128  Biso 1.000000     C
    C   1.0     0.165112     0.849238     0.586899  Biso 1.000000     C
    C   1.0     0.831473     0.364669     0.058966  Biso 1.000000     C
    C   1.0     0.878294     0.390067     0.145432  Biso 1.000000     C
    C   1.0     0.447613     0.240161     0.903973  Biso 1.000000     C
    C   1.0     0.423699     0.380991     0.572583  Biso 1.000000     C
    C   1.0     0.364006     0.290022     0.047723  Biso 1.000000     C
    C   1.0     0.502974     0.239903     0.836261  Biso 1.000000     C
    C   1.0     0.331662    -0.005759     0.677166  Biso 1.000000     C
    C   1.0     0.295904     0.410693     0.152062  Biso 1.000000     C
    C   1.0     0.388917     0.855117     0.586589  Biso 1.000000     C
    C   1.0     0.417652     0.335848     0.681216  Biso 1.000000     C
    C   1.0     0.246405     0.442191     0.224303  Biso 1.000000     C
    C   1.0     0.775716     0.269752     0.000280  Biso 1.000000     C
    C   1.0     0.313688     0.318478     0.113529  Biso 1.000000     C
    C   1.0     0.493311     0.138252     0.772578  Biso 1.000000     C
    C   1.0     0.867991     0.321952     0.174206  Biso 1.000000     C
    C   1.0     0.246383     0.454529     0.516125  Biso 1.000000     C
    C   1.0     0.307390     0.415299     0.574258  Biso 1.000000     C
    C   1.0     0.330460     0.475038     0.123764  Biso 1.000000     C
    C   1.0     0.248368     0.409983     0.630889  Biso 1.000000     C
    C   1.0     0.399617     0.355535     0.021132  Biso 1.000000     C
    C   1.0     0.223026     0.703018     0.492232  Biso 1.000000     C
    C   1.0     0.258863     0.803551     0.556170  Biso 1.000000     C
    C   1.0     0.905724     0.349728     0.265729  Biso 1.000000     C
    C   1.0     0.521858     0.658728     0.374910  Biso 1.000000     C
    C   1.0     0.617228     0.551718     0.940688  Biso 1.000000     C
    C   1.0     0.348943     0.709324     0.121812  Biso 1.000000     C
    C   1.0     0.799441     0.056488     0.353774  Biso 1.000000     C
    C   1.0     0.577258     0.709028     0.209464  Biso 1.000000     C
    C   1.0     0.185467     0.773246     0.885514  Biso 1.000000     C
    C   1.0     0.696747     0.628787     0.315331  Biso 1.000000     C
    C   1.0     0.229692     0.799392     0.971761  Biso 1.000000     C
    C   1.0     0.573740     0.050620     0.353007  Biso 1.000000     C
    C   1.0     0.834871     0.150796     0.413241  Biso 1.000000     C
    C   1.0     0.168491     0.635355     0.941162  Biso 1.000000     C
    C   1.0     0.121691     0.609949     0.854694  Biso 1.000000     C
    C   1.0     0.552349     0.759880     0.096168  Biso 1.000000     C
    C   1.0     0.576274     0.618997     0.427520  Biso 1.000000     C
    C   1.0     0.635943     0.710006     0.952411  Biso 1.000000     C
    C   1.0     0.496986     0.760139     0.163880  Biso 1.000000     C
    C   1.0     0.668299     0.000000     0.322968  Biso 1.000000     C
    C   1.0     0.704059     0.589334     0.848081  Biso 1.000000     C
    C   1.0     0.611068     0.144935     0.413556  Biso 1.000000     C
    C   1.0     0.582304     0.664160     0.318898  Biso 1.000000     C
    C   1.0     0.753556     0.557828     0.775837  Biso 1.000000     C
    C   1.0     0.224272     0.730269     0.999845  Biso 1.000000     C
    C   1.0     0.686259     0.681546     0.886603  Biso 1.000000     C
    C   1.0     0.506644     0.861791     0.227561  Biso 1.000000     C
    C   1.0     0.132022     0.678058     0.825916  Biso 1.000000     C
    C   1.0     0.753597     0.545442     0.483949  Biso 1.000000     C
    C   1.0     0.692619     0.584734     0.425864  Biso 1.000000     C
    C   1.0     0.669523     0.524997     0.876392  Biso 1.000000     C
    C   1.0     0.751603     0.590026     0.369210  Biso 1.000000     C
    C   1.0     0.600347     0.644499     0.979012  Biso 1.000000     C
    C   1.0     0.776990     0.297023     0.507918  Biso 1.000000     C
    C   1.0     0.741124     0.196494     0.443965  Biso 1.000000     C
    C   1.0     0.094313     0.650278     0.734393  Biso 1.000000     C
    O   1.0     0.357937     0.086583     0.736035  Biso 1.000000     O
    O   1.0    -0.030504     0.433719     0.322276  Biso 1.000000     O
    O   1.0     0.728511     0.237662     0.913839  Biso 1.000000     O
    O   1.0     0.302010     0.465322     0.468692  Biso 1.000000     O
    O   1.0     0.130733     0.476101     0.515777  Biso 1.000000     O
    O   1.0     0.453427     0.336702     0.958857  Biso 1.000000     O
    O   1.0     0.866782     0.289168     0.288182  Biso 1.000000     O
    O   1.0     0.477654     0.294369     0.729866  Biso 1.000000     O
    O   1.0     0.242343     0.390184     0.261147  Biso 1.000000     O
    O   1.0     0.113605     0.648740     0.477469  Biso 1.000000     O
    O   1.0     0.298156     0.670258     0.451446  Biso 1.000000     O
    O   1.0     0.213227     0.522311     0.249210  Biso 1.000000     O
    O   1.0     0.642015     0.913462     0.264099  Biso 1.000000     O
    O   1.0     0.000000     0.566299     0.677841  Biso 1.000000     O
    O   1.0     0.271450     0.762367     0.086287  Biso 1.000000     O
    O   1.0     0.697992     0.534663     0.531396  Biso 1.000000     O
    O   1.0     0.869271     0.523913     0.484309  Biso 1.000000     O
    O   1.0     0.546533     0.663336     0.041286  Biso 1.000000     O
    O   1.0     0.133292     0.710828     0.711942  Biso 1.000000     O
    O   1.0     0.522328     0.705681     0.270281  Biso 1.000000     O
    O   1.0     0.757597     0.609826     0.738981  Biso 1.000000     O
    O   1.0     0.886411     0.351294     0.522671  Biso 1.000000     O
    O   1.0     0.701878     0.329787     0.548718  Biso 1.000000     O
    O   1.0     0.786753     0.477716     0.750942  Biso 1.000000     O
   Cd   1.0     0.070591     0.617230     0.573940  Biso 1.000000    Cd
   Cd   1.0     0.192566     0.511120     0.367953  Biso 1.000000    Cd
   Cd   1.0     0.929403     0.382766     0.426176  Biso 1.000000    Cd
   Cd   1.0     0.807413     0.488922     0.632191  Biso 1.000000    Cd
