#======================================================================

# CRYSTAL DATA

#----------------------------------------------------------------------

data_VESTA_phase_1


_pd_phase_name                         MOF
_cell_length_a                         21.85000
_cell_length_b                         21.89200
_cell_length_c                         13.97200
_cell_angle_alpha                      95.20000
_cell_angle_beta                       99.23000
_cell_angle_gamma                      99.89000
_symmetry_space_group_name_H-M         "P 1"
_symmetry_Int_Tables_number            1

loop_
_symmetry_equiv_pos_as_xyz
   "x, y, z"

loop_
   _atom_site_label
   _atom_site_occupancy
   _atom_site_fract_x
   _atom_site_fract_y
   _atom_site_fract_z
   _atom_site_adp_type
   _atom_site_B_iso_or_equiv
   _atom_site_type_symbol
    H   1.0     0.153339     0.040985     0.640562  Biso 1.000000     H
    H   1.0     0.144204     0.544592     0.640547  Biso 1.000000     H
    H   1.0     0.658612     0.040993     0.640578  Biso 1.000000     H
    H   1.0     0.649403     0.544585     0.640572  Biso 1.000000     H
    H   1.0     0.144714     0.153918     0.635608  Biso 1.000000     H
    H   1.0     0.135583     0.657527     0.635596  Biso 1.000000     H
    H   1.0     0.650009     0.153946     0.635674  Biso 1.000000     H
    H   1.0     0.640797     0.657536     0.635667  Biso 1.000000     H
    H   1.0     0.222751     0.192416     0.941881  Biso 1.000000     H
    H   1.0     0.213563     0.696009     0.941889  Biso 1.000000     H
    H   1.0     0.728723     0.192520     0.941707  Biso 1.000000     H
    H   1.0     0.719576     0.696125     0.941677  Biso 1.000000     H
    H   1.0     0.229844     0.080324     0.947239  Biso 1.000000     H
    H   1.0     0.220649     0.583916     0.947245  Biso 1.000000     H
    H   1.0     0.735713     0.080408     0.947053  Biso 1.000000     H
    H   1.0     0.726556     0.584012     0.947028  Biso 1.000000     H
    H   1.0     0.464368     0.333004     0.625195  Biso 1.000000     H
    H   1.0     0.455119     0.836559     0.625200  Biso 1.000000     H
    H   1.0     0.969837     0.332879     0.624596  Biso 1.000000     H
    H   1.0     0.960582     0.836401     0.624605  Biso 1.000000     H
    H   1.0     0.351975     0.340053     0.633369  Biso 1.000000     H
    H   1.0     0.342727     0.843613     0.633375  Biso 1.000000     H
    H   1.0     0.857455     0.339862     0.632821  Biso 1.000000     H
    H   1.0     0.848203     0.843387     0.632837  Biso 1.000000     H
    H   1.0     0.404676     0.401708     0.940829  Biso 1.000000     H
    H   1.0     0.395444     0.905338     0.940812  Biso 1.000000     H
    H   1.0     0.910290     0.402065     0.940115  Biso 1.000000     H
    H   1.0     0.901056     0.905657     0.940108  Biso 1.000000     H
    H   1.0     0.517046     0.393166     0.932825  Biso 1.000000     H
    H   1.0     0.507813     0.896789     0.932810  Biso 1.000000     H
    H   1.0     0.000000     0.393569     0.932074  Biso 1.000000     H
    H   1.0     0.000000     0.897158     0.932064  Biso 1.000000     H
    H   1.0     0.172367     0.458890     0.047431  Biso 1.000000     H
    H   1.0     0.163046     0.962481     0.047387  Biso 1.000000     H
    H   1.0     0.677976     0.459007     0.047313  Biso 1.000000     H
    H   1.0     0.668766     0.962595     0.047298  Biso 1.000000     H
    H   1.0     0.142564     0.263367     0.194697  Biso 1.000000     H
    H   1.0     0.133562     0.766986     0.194776  Biso 1.000000     H
    H   1.0     0.649062     0.263574     0.194943  Biso 1.000000     H
    H   1.0     0.639896     0.767179     0.194979  Biso 1.000000     H
    H   1.0     0.145997     0.265850     0.016574  Biso 1.000000     H
    H   1.0     0.136966     0.769458     0.016643  Biso 1.000000     H
    H   1.0     0.652676     0.266025     0.016873  Biso 1.000000     H
    H   1.0     0.643485     0.769614     0.016898  Biso 1.000000     H
    H   1.0     0.258228     0.387731     0.368759  Biso 1.000000     H
    H   1.0     0.249048     0.891509     0.368859  Biso 1.000000     H
    H   1.0     0.763941     0.388290     0.369256  Biso 1.000000     H
    H   1.0     0.754759     0.891915     0.369301  Biso 1.000000     H
    H   1.0     0.259176     0.382446     0.548107  Biso 1.000000     H
    H   1.0     0.249956     0.886206     0.548195  Biso 1.000000     H
    H   1.0     0.764577     0.382876     0.548523  Biso 1.000000     H
    H   1.0     0.755371     0.886501     0.548564  Biso 1.000000     H
    H   1.0     0.064455     0.333558     0.502785  Biso 1.000000     H
    H   1.0     0.055251     0.837032     0.502713  Biso 1.000000     H
    H   1.0     0.569880     0.333259     0.502195  Biso 1.000000     H
    H   1.0     0.560674     0.836872     0.502176  Biso 1.000000     H
    H   1.0     0.219786     0.493881     0.293808  Biso 1.000000     H
    H   1.0     0.210591     0.997657     0.293476  Biso 1.000000     H
    H   1.0     0.725240     0.494420     0.293300  Biso 1.000000     H
    H   1.0     0.716081     0.998036     0.293253  Biso 1.000000     H
    H   1.0     0.182406     0.016848     0.195788  Biso 1.000000     H
    H   1.0     0.173554     0.520458     0.195865  Biso 1.000000     H
    H   1.0     0.687626     0.016936     0.195555  Biso 1.000000     H
    H   1.0     0.678348     0.520514     0.195574  Biso 1.000000     H
    H   1.0     0.137148     0.484986     0.287574  Biso 1.000000     H
    H   1.0     0.127982     0.988462     0.287846  Biso 1.000000     H
    H   1.0     0.642614     0.484822     0.287714  Biso 1.000000     H
    H   1.0     0.633460     0.988427     0.287745  Biso 1.000000     H
    H   1.0     0.034313     0.298095     0.241425  Biso 1.000000     H
    H   1.0     0.025209     0.801536     0.241393  Biso 1.000000     H
    H   1.0     0.540342     0.298061     0.240771  Biso 1.000000     H
    H   1.0     0.531153     0.801638     0.240796  Biso 1.000000     H
    H   1.0     0.504783     0.313903     0.343426  Biso 1.000000     H
    H   1.0     0.495590     0.817559     0.343419  Biso 1.000000     H
    H   1.0     0.000000     0.314396     0.344220  Biso 1.000000     H
    H   1.0     0.000000     0.817849     0.344121  Biso 1.000000     H
    H   1.0     0.024276     0.375015     0.274622  Biso 1.000000     H
    H   1.0     0.015090     0.878443     0.274464  Biso 1.000000     H
    H   1.0     0.529897     0.374804     0.274255  Biso 1.000000     H
    H   1.0     0.520738     0.878406     0.274174  Biso 1.000000     H
    H   1.0     0.382775     0.480822     0.374428  Biso 1.000000     H
    H   1.0     0.373568     0.984414     0.374425  Biso 1.000000     H
    H   1.0     0.887986     0.480818     0.374449  Biso 1.000000     H
    H   1.0     0.878860     0.984427     0.374434  Biso 1.000000     H
    H   1.0     0.391380     0.367870     0.379332  Biso 1.000000     H
    H   1.0     0.382170     0.871461     0.379329  Biso 1.000000     H
    H   1.0     0.896608     0.367883     0.379400  Biso 1.000000     H
    H   1.0     0.887484     0.871493     0.379389  Biso 1.000000     H
    H   1.0     0.312610     0.329283     0.073319  Biso 1.000000     H
    H   1.0     0.303459     0.832888     0.073294  Biso 1.000000     H
    H   1.0     0.818616     0.329399     0.073111  Biso 1.000000     H
    H   1.0     0.809432     0.832992     0.073121  Biso 1.000000     H
    H   1.0     0.305629     0.441396     0.067969  Biso 1.000000     H
    H   1.0     0.296470     0.945000     0.067948  Biso 1.000000     H
    H   1.0     0.811529     0.441492     0.067755  Biso 1.000000     H
    H   1.0     0.802339     0.945085     0.067764  Biso 1.000000     H
    H   1.0     0.071598     0.189006     0.390394  Biso 1.000000     H
    H   1.0     0.062343     0.692529     0.390400  Biso 1.000000     H
    H   1.0     0.577062     0.188851     0.389799  Biso 1.000000     H
    H   1.0     0.567812     0.692404     0.389803  Biso 1.000000     H
    H   1.0     0.183977     0.182020     0.382162  Biso 1.000000     H
    H   1.0     0.174725     0.685546     0.382176  Biso 1.000000     H
    H   1.0     0.689454     0.181799     0.381624  Biso 1.000000     H
    H   1.0     0.680205     0.685355     0.381630  Biso 1.000000     H
    H   1.0     0.131126     0.119760     0.074889  Biso 1.000000     H
    H   1.0     0.121892     0.623347     0.074881  Biso 1.000000     H
    H   1.0     0.636737     0.120077     0.074186  Biso 1.000000     H
    H   1.0     0.627505     0.623708     0.074167  Biso 1.000000     H
    H   1.0     0.018827     0.128259     0.082933  Biso 1.000000     H
    H   1.0     0.009591     0.631843     0.082921  Biso 1.000000     H
    H   1.0     0.524369     0.128625     0.082188  Biso 1.000000     H
    H   1.0     0.515136     0.632250     0.082171  Biso 1.000000     H
    H   1.0     0.363419     0.062815     0.967694  Biso 1.000000     H
    H   1.0     0.354208     0.566405     0.967680  Biso 1.000000     H
    H   1.0     0.869132     0.062929     0.967604  Biso 1.000000     H
    H   1.0     0.859810     0.566522     0.967559  Biso 1.000000     H
    H   1.0     0.392293     0.258237     0.820032  Biso 1.000000     H
    H   1.0     0.383125     0.761844     0.820066  Biso 1.000000     H
    H   1.0     0.898631     0.258431     0.820235  Biso 1.000000     H
    H   1.0     0.889632     0.762051     0.820314  Biso 1.000000     H
    H   1.0     0.388702     0.255796     0.998111  Biso 1.000000     H
    H   1.0     0.379507     0.759387     0.998134  Biso 1.000000     H
    H   1.0     0.895224     0.255953     0.998366  Biso 1.000000     H
    H   1.0     0.886196     0.759562     0.998435  Biso 1.000000     H
    H   1.0     0.277427     0.133506     0.645705  Biso 1.000000     H
    H   1.0     0.268246     0.637128     0.645750  Biso 1.000000     H
    H   1.0     0.783135     0.133923     0.646147  Biso 1.000000     H
    H   1.0     0.773956     0.637707     0.646250  Biso 1.000000     H
    H   1.0     0.276813     0.138917     0.466441  Biso 1.000000     H
    H   1.0     0.267607     0.642536     0.466481  Biso 1.000000     H
    H   1.0     0.782226     0.139222     0.466811  Biso 1.000000     H
    H   1.0     0.773006     0.642986     0.466900  Biso 1.000000     H
    H   1.0     0.471510     0.188544     0.512822  Biso 1.000000     H
    H   1.0     0.462304     0.692157     0.512802  Biso 1.000000     H
    H   1.0     0.976932     0.188372     0.512281  Biso 1.000000     H
    H   1.0     0.967728     0.691843     0.512208  Biso 1.000000     H
    H   1.0     0.316106     0.027381     0.721740  Biso 1.000000     H
    H   1.0     0.306948     0.530997     0.721697  Biso 1.000000     H
    H   1.0     0.821587     0.027764     0.721514  Biso 1.000000     H
    H   1.0     0.812396     0.531544     0.721174  Biso 1.000000     H
    H   1.0     0.353844     0.504903     0.819417  Biso 1.000000     H
    H   1.0     0.344563     0.000000     0.819433  Biso 1.000000     H
    H   1.0     0.858616     0.504957     0.819120  Biso 1.000000     H
    H   1.0     0.849771     0.000000     0.819196  Biso 1.000000     H
    H   1.0     0.398726     0.036992     0.727245  Biso 1.000000     H
    H   1.0     0.389574     0.540599     0.727277  Biso 1.000000     H
    H   1.0     0.904196     0.036955     0.727141  Biso 1.000000     H
    H   1.0     0.895035     0.540429     0.727424  Biso 1.000000     H
    H   1.0     0.501032     0.223780     0.774204  Biso 1.000000     H
    H   1.0     0.491843     0.727359     0.774230  Biso 1.000000     H
    H   1.0     0.000000     0.223874     0.773602  Biso 1.000000     H
    H   1.0     0.997880     0.727315     0.773566  Biso 1.000000     H
    H   1.0     0.030891     0.207555     0.670873  Biso 1.000000     H
    H   1.0     0.021729     0.711001     0.670769  Biso 1.000000     H
    H   1.0     0.536595     0.207863     0.671581  Biso 1.000000     H
    H   1.0     0.527402     0.711524     0.671573  Biso 1.000000     H
    H   1.0     0.511450     0.147014     0.740824  Biso 1.000000     H
    H   1.0     0.502294     0.650620     0.740739  Biso 1.000000     H
    H   1.0     0.000000     0.146964     0.740534  Biso 1.000000     H
    H   1.0     0.000000     0.650390     0.740376  Biso 1.000000     H
    C   1.0     0.187490     0.489734     0.796483  Biso 1.000000     C
    C   1.0     0.178200     0.993315     0.796486  Biso 1.000000     C
    C   1.0     0.692762     0.489732     0.796445  Biso 1.000000     C
    C   1.0     0.683500     0.993316     0.796452  Biso 1.000000     C
    C   1.0     0.192211     0.053792     0.793922  Biso 1.000000     C
    C   1.0     0.183049     0.557392     0.793914  Biso 1.000000     C
    C   1.0     0.697700     0.053830     0.793853  Biso 1.000000     C
    C   1.0     0.688514     0.557427     0.793838  Biso 1.000000     C
    C   1.0     0.168197     0.074707     0.706036  Biso 1.000000     C
    C   1.0     0.159050     0.578312     0.706024  Biso 1.000000     C
    C   1.0     0.673593     0.074736     0.706014  Biso 1.000000     C
    C   1.0     0.664397     0.578330     0.706003  Biso 1.000000     C
    C   1.0     0.163349     0.137158     0.703373  Biso 1.000000     C
    C   1.0     0.154201     0.640763     0.703367  Biso 1.000000     C
    C   1.0     0.668766     0.137192     0.703377  Biso 1.000000     C
    C   1.0     0.659565     0.640785     0.703367  Biso 1.000000     C
    C   1.0     0.182783     0.180002     0.788383  Biso 1.000000     C
    C   1.0     0.173609     0.683600     0.788388  Biso 1.000000     C
    C   1.0     0.688339     0.180048     0.788355  Biso 1.000000     C
    C   1.0     0.679146     0.683643     0.788342  Biso 1.000000     C
    C   1.0     0.206970     0.159081     0.876143  Biso 1.000000     C
    C   1.0     0.197790     0.662675     0.876147  Biso 1.000000     C
    C   1.0     0.712769     0.159163     0.876019  Biso 1.000000     C
    C   1.0     0.703603     0.662765     0.875997  Biso 1.000000     C
    C   1.0     0.211311     0.096536     0.879014  Biso 1.000000     C
    C   1.0     0.202131     0.600130     0.879014  Biso 1.000000     C
    C   1.0     0.717058     0.096607     0.878881  Biso 1.000000     C
    C   1.0     0.707892     0.600209     0.878858  Biso 1.000000     C
    C   1.0     0.178438     0.247622     0.785039  Biso 1.000000     C
    C   1.0     0.169256     0.751219     0.785047  Biso 1.000000     C
    C   1.0     0.683855     0.247643     0.785104  Biso 1.000000     C
    C   1.0     0.674636     0.751233     0.785096  Biso 1.000000     C
    C   1.0     0.059328     0.359746     0.773442  Biso 1.000000     C
    C   1.0     0.050089     0.863311     0.773440  Biso 1.000000     C
    C   1.0     0.565064     0.359657     0.773687  Biso 1.000000     C
    C   1.0     0.555824     0.863244     0.773684  Biso 1.000000     C
    C   1.0     0.497403     0.362860     0.778558  Biso 1.000000     C
    C   1.0     0.488164     0.866450     0.778552  Biso 1.000000     C
    C   1.0     0.000000     0.363013     0.777870  Biso 1.000000     C
    C   1.0     0.993748     0.866567     0.777871  Biso 1.000000     C
    C   1.0     0.450853     0.348009     0.693983  Biso 1.000000     C
    C   1.0     0.441610     0.851581     0.693983  Biso 1.000000     C
    C   1.0     0.956387     0.348027     0.693376  Biso 1.000000     C
    C   1.0     0.947140     0.851563     0.693384  Biso 1.000000     C
    C   1.0     0.388554     0.352385     0.698398  Biso 1.000000     C
    C   1.0     0.379310     0.855959     0.698398  Biso 1.000000     C
    C   1.0     0.894047     0.352353     0.697823  Biso 1.000000     C
    C   1.0     0.884800     0.855896     0.697831  Biso 1.000000     C
    C   1.0     0.371668     0.372118     0.787332  Biso 1.000000     C
    C   1.0     0.362430     0.875713     0.787326  Biso 1.000000     C
    C   1.0     0.877121     0.372182     0.786689  Biso 1.000000     C
    C   1.0     0.867881     0.875752     0.786689  Biso 1.000000     C
    C   1.0     0.418210     0.386810     0.871986  Biso 1.000000     C
    C   1.0     0.408975     0.890423     0.871974  Biso 1.000000     C
    C   1.0     0.923751     0.387072     0.871255  Biso 1.000000     C
    C   1.0     0.914514     0.890652     0.871251  Biso 1.000000     C
    C   1.0     0.480466     0.382004     0.867676  Biso 1.000000     C
    C   1.0     0.471231     0.885614     0.867665  Biso 1.000000     C
    C   1.0     0.986016     0.382305     0.866925  Biso 1.000000     C
    C   1.0     0.976778     0.885880     0.866920  Biso 1.000000     C
    C   1.0     0.304118     0.375997     0.791849  Biso 1.000000     C
    C   1.0     0.294884     0.879598     0.791848  Biso 1.000000     C
    C   1.0     0.809535     0.375982     0.791428  Biso 1.000000     C
    C   1.0     0.800297     0.879564     0.791431  Biso 1.000000     C
    C   1.0     0.165965     0.416748     0.083645  Biso 1.000000     C
    C   1.0     0.156717     0.920346     0.083630  Biso 1.000000     C
    C   1.0     0.671793     0.416887     0.083612  Biso 1.000000     C
    C   1.0     0.662594     0.920478     0.083608  Biso 1.000000     C
    C   1.0     0.165217     0.420646     0.183854  Biso 1.000000     C
    C   1.0     0.155981     0.924251     0.183844  Biso 1.000000     C
    C   1.0     0.670918     0.420796     0.183788  Biso 1.000000     C
    C   1.0     0.661736     0.924397     0.183789  Biso 1.000000     C
    C   1.0     0.156244     0.364025     0.224939  Biso 1.000000     C
    C   1.0     0.147092     0.867637     0.224960  Biso 1.000000     C
    C   1.0     0.662190     0.364201     0.224979  Biso 1.000000     C
    C   1.0     0.653015     0.867807     0.224994  Biso 1.000000     C
    C   1.0     0.149054     0.307723     0.164681  Biso 1.000000     C
    C   1.0     0.139982     0.811335     0.164733  Biso 1.000000     C
    C   1.0     0.655370     0.307911     0.164849  Biso 1.000000     C
    C   1.0     0.646195     0.811512     0.164874  Biso 1.000000     C
    C   1.0     0.151031     0.308494     0.066075  Biso 1.000000     C
    C   1.0     0.141944     0.812101     0.066122  Biso 1.000000     C
    C   1.0     0.657459     0.308665     0.066274  Biso 1.000000     C
    C   1.0     0.648269     0.812257     0.066293  Biso 1.000000     C
    C   1.0     0.156387     0.362666     0.331267  Biso 1.000000     C
    C   1.0     0.147221     0.866285     0.331286  Biso 1.000000     C
    C   1.0     0.662151     0.362841     0.331268  Biso 1.000000     C
    C   1.0     0.652970     0.866454     0.331283  Biso 1.000000     C
    C   1.0     0.214188     0.375876     0.395976  Biso 1.000000     C
    C   1.0     0.205004     0.879583     0.396037  Biso 1.000000     C
    C   1.0     0.719845     0.376246     0.396246  Biso 1.000000     C
    C   1.0     0.710659     0.879867     0.396276  Biso 1.000000     C
    C   1.0     0.215360     0.372920     0.494993  Biso 1.000000     C
    C   1.0     0.206152     0.876619     0.495049  Biso 1.000000     C
    C   1.0     0.720845     0.373227     0.495218  Biso 1.000000     C
    C   1.0     0.711645     0.876847     0.495246  Biso 1.000000     C
    C   1.0     0.106120     0.345142     0.469328  Biso 1.000000     C
    C   1.0     0.096923     0.848678     0.469295  Biso 1.000000     C
    C   1.0     0.611628     0.345039     0.469001  Biso 1.000000     C
    C   1.0     0.602428     0.848652     0.468996  Biso 1.000000     C
    C   1.0     0.100147     0.346761     0.368439  Biso 1.000000     C
    C   1.0     0.090973     0.850299     0.368409  Biso 1.000000     C
    C   1.0     0.605833     0.346716     0.368144  Biso 1.000000     C
    C   1.0     0.596645     0.850330     0.368142  Biso 1.000000     C
    C   1.0     0.174211     0.483248     0.243233  Biso 1.000000     C
    C   1.0     0.164898     0.986852     0.243195  Biso 1.000000     C
    C   1.0     0.679539     0.483389     0.243041  Biso 1.000000     C
    C   1.0     0.670365     0.986994     0.243032  Biso 1.000000     C
    C   1.0     0.036091     0.332738     0.304254  Biso 1.000000     C
    C   1.0     0.026934     0.836199     0.304172  Biso 1.000000     C
    C   1.0     0.541867     0.332529     0.303710  Biso 1.000000     C
    C   1.0     0.532685     0.836142     0.303692  Biso 1.000000     C
    C   1.0     0.348681     0.032091     0.218549  Biso 1.000000     C
    C   1.0     0.339419     0.535675     0.218553  Biso 1.000000     C
    C   1.0     0.853987     0.032094     0.218513  Biso 1.000000     C
    C   1.0     0.844693     0.535674     0.218516  Biso 1.000000     C
    C   1.0     0.343668     0.467981     0.221160  Biso 1.000000     C
    C   1.0     0.334480     0.971577     0.221149  Biso 1.000000     C
    C   1.0     0.849135     0.468016     0.221084  Biso 1.000000     C
    C   1.0     0.839979     0.971618     0.221078  Biso 1.000000     C
    C   1.0     0.367783     0.447077     0.308996  Biso 1.000000     C
    C   1.0     0.358586     0.950671     0.308988  Biso 1.000000     C
    C   1.0     0.873138     0.447097     0.308972  Biso 1.000000     C
    C   1.0     0.863998     0.950704     0.308962  Biso 1.000000     C
    C   1.0     0.372614     0.384622     0.311631  Biso 1.000000     C
    C   1.0     0.363414     0.888215     0.311625  Biso 1.000000     C
    C   1.0     0.877987     0.384647     0.311630  Biso 1.000000     C
    C   1.0     0.868845     0.888253     0.311625  Biso 1.000000     C
    C   1.0     0.353035     0.341764     0.226656  Biso 1.000000     C
    C   1.0     0.343842     0.845360     0.226646  Biso 1.000000     C
    C   1.0     0.858575     0.341808     0.226611  Biso 1.000000     C
    C   1.0     0.849405     0.845407     0.226617  Biso 1.000000     C
    C   1.0     0.328581     0.362643     0.139001  Biso 1.000000     C
    C   1.0     0.319413     0.866245     0.138983  Biso 1.000000     C
    C   1.0     0.834391     0.362733     0.138852  Biso 1.000000     C
    C   1.0     0.825216     0.866328     0.138858  Biso 1.000000     C
    C   1.0     0.324292     0.425199     0.136139  Biso 1.000000     C
    C   1.0     0.315124     0.928800     0.136121  Biso 1.000000     C
    C   1.0     0.830049     0.425278     0.135985  Biso 1.000000     C
    C   1.0     0.820875     0.928873     0.135987  Biso 1.000000     C
    C   1.0     0.357545     0.274174     0.229903  Biso 1.000000     C
    C   1.0     0.348326     0.777764     0.229897  Biso 1.000000     C
    C   1.0     0.862926     0.274189     0.229952  Biso 1.000000     C
    C   1.0     0.853747     0.777787     0.229961  Biso 1.000000     C
    C   1.0     0.476356     0.162165     0.241315  Biso 1.000000     C
    C   1.0     0.467116     0.665751     0.241311  Biso 1.000000     C
    C   1.0     0.982092     0.162098     0.241559  Biso 1.000000     C
    C   1.0     0.972852     0.665662     0.241555  Biso 1.000000     C
    C   1.0     0.038433     0.158844     0.237127  Biso 1.000000     C
    C   1.0     0.029189     0.662395     0.237127  Biso 1.000000     C
    C   1.0     0.544018     0.158964     0.236446  Biso 1.000000     C
    C   1.0     0.534778     0.662551     0.236440  Biso 1.000000     C
    C   1.0     0.085041     0.173847     0.321615  Biso 1.000000     C
    C   1.0     0.075793     0.677382     0.321620  Biso 1.000000     C
    C   1.0     0.590572     0.173831     0.321015  Biso 1.000000     C
    C   1.0     0.581327     0.677400     0.321015  Biso 1.000000     C
    C   1.0     0.147381     0.169514     0.317167  Biso 1.000000     C
    C   1.0     0.138133     0.673056     0.317173  Biso 1.000000     C
    C   1.0     0.652871     0.169453     0.316601  Biso 1.000000     C
    C   1.0     0.643627     0.673026     0.316599  Biso 1.000000     C
    C   1.0     0.164300     0.149660     0.228308  Biso 1.000000     C
    C   1.0     0.155059     0.653229     0.228307  Biso 1.000000     C
    C   1.0     0.669751     0.149698     0.227673  Biso 1.000000     C
    C   1.0     0.660513     0.653295     0.227665  Biso 1.000000     C
    C   1.0     0.117668     0.134763     0.143746  Biso 1.000000     C
    C   1.0     0.108430     0.638340     0.143740  Biso 1.000000     C
    C   1.0     0.623207     0.134991     0.143024  Biso 1.000000     C
    C   1.0     0.613972     0.638606     0.143010  Biso 1.000000     C
    C   1.0     0.055404     0.139535     0.148077  Biso 1.000000     C
    C   1.0     0.046165     0.643105     0.148071  Biso 1.000000     C
    C   1.0     0.560951     0.139800     0.147333  Biso 1.000000     C
    C   1.0     0.551715     0.643410     0.147320  Biso 1.000000     C
    C   1.0     0.231884     0.145845     0.223567  Biso 1.000000     C
    C   1.0     0.222645     0.649426     0.223570  Biso 1.000000     C
    C   1.0     0.737297     0.145811     0.223150  Biso 1.000000     C
    C   1.0     0.728062     0.649413     0.223149  Biso 1.000000     C
    C   1.0     0.369592     0.104933     0.931388  Biso 1.000000     C
    C   1.0     0.360392     0.608527     0.931385  Biso 1.000000     C
    C   1.0     0.875465     0.105065     0.931365  Biso 1.000000     C
    C   1.0     0.866217     0.608665     0.931350  Biso 1.000000     C
    C   1.0     0.370451     0.101018     0.831208  Biso 1.000000     C
    C   1.0     0.361269     0.604620     0.831210  Biso 1.000000     C
    C   1.0     0.876201     0.101164     0.831152  Biso 1.000000     C
    C   1.0     0.866966     0.604770     0.831141  Biso 1.000000     C
    C   1.0     0.379172     0.157610     0.790008  Biso 1.000000     C
    C   1.0     0.369998     0.661217     0.790023  Biso 1.000000     C
    C   1.0     0.885093     0.157780     0.790041  Biso 1.000000     C
    C   1.0     0.875944     0.661393     0.790062  Biso 1.000000     C
    C   1.0     0.385993     0.213903     0.850132  Biso 1.000000     C
    C   1.0     0.376817     0.717506     0.850156  Biso 1.000000     C
    C   1.0     0.892207     0.214080     0.850273  Biso 1.000000     C
    C   1.0     0.883138     0.717694     0.850325  Biso 1.000000     C
    C   1.0     0.383918     0.213154     0.948713  Biso 1.000000     C
    C   1.0     0.374726     0.716749     0.948730  Biso 1.000000     C
    C   1.0     0.890245     0.213311     0.948883  Biso 1.000000     C
    C   1.0     0.881159     0.716919     0.948930  Biso 1.000000     C
    C   1.0     0.379216     0.158964     0.683719  Biso 1.000000     C
    C   1.0     0.370036     0.662578     0.683734  Biso 1.000000     C
    C   1.0     0.884964     0.159135     0.683716  Biso 1.000000     C
    C   1.0     0.875799     0.662755     0.683734  Biso 1.000000     C
    C   1.0     0.321527     0.145553     0.618727  Biso 1.000000     C
    C   1.0     0.312341     0.649171     0.618758  Biso 1.000000     C
    C   1.0     0.827179     0.145843     0.618967  Biso 1.000000     C
    C   1.0     0.817996     0.649553     0.619030  Biso 1.000000     C
    C   1.0     0.320539     0.148571     0.519757  Biso 1.000000     C
    C   1.0     0.311339     0.652188     0.519785  Biso 1.000000     C
    C   1.0     0.826030     0.148805     0.519955  Biso 1.000000     C
    C   1.0     0.816823     0.652506     0.520011  Biso 1.000000     C
    C   1.0     0.429756     0.176764     0.546004  Biso 1.000000     C
    C   1.0     0.420556     0.680377     0.545998  Biso 1.000000     C
    C   1.0     0.935260     0.176732     0.545703  Biso 1.000000     C
    C   1.0     0.926063     0.680267     0.545668  Biso 1.000000     C
    C   1.0     0.435540     0.175089     0.646858  Biso 1.000000     C
    C   1.0     0.426353     0.678704     0.646855  Biso 1.000000     C
    C   1.0     0.941211     0.175113     0.646589  Biso 1.000000     C
    C   1.0     0.932039     0.678650     0.646558  Biso 1.000000     C
    C   1.0     0.361822     0.038423     0.771960  Biso 1.000000     C
    C   1.0     0.352650     0.542029     0.771953  Biso 1.000000     C
    C   1.0     0.867281     0.038565     0.771794  Biso 1.000000     C
    C   1.0     0.857968     0.542170     0.771756  Biso 1.000000     C
    C   1.0     0.499501     0.189277     0.711307  Biso 1.000000     C
    C   1.0     0.490320     0.692893     0.711288  Biso 1.000000     C
    C   1.0     0.000000     0.189209     0.710824  Biso 1.000000     C
    C   1.0     0.996096     0.692667     0.710740  Biso 1.000000     C
    N   1.0     0.159239     0.362394     0.025890  Biso 1.000000     N
    N   1.0     0.150056     0.865993     0.025901  Biso 1.000000     N
    N   1.0     0.665426     0.362541     0.025989  Biso 1.000000     N
    N   1.0     0.656220     0.866128     0.025993  Biso 1.000000     N
    N   1.0     0.161955     0.357676     0.531424  Biso 1.000000     N
    N   1.0     0.152743     0.861286     0.531431  Biso 1.000000     N
    N   1.0     0.667361     0.357731     0.531351  Biso 1.000000     N
    N   1.0     0.658154     0.861345     0.531361  Biso 1.000000     N
    N   1.0     0.375965     0.159281     0.989007  Biso 1.000000     N
    N   1.0     0.366757     0.662871     0.989011  Biso 1.000000     N
    N   1.0     0.882128     0.159417     0.989098  Biso 1.000000     N
    N   1.0     0.872945     0.663017     0.989110  Biso 1.000000     N
    N   1.0     0.374029     0.164071     0.483640  Biso 1.000000     N
    N   1.0     0.364823     0.667682     0.483649  Biso 1.000000     N
    N   1.0     0.879440     0.164129     0.483569  Biso 1.000000     N
    N   1.0     0.870227     0.667739     0.483576  Biso 1.000000     N
    O   1.0     0.177613     0.455622     0.714756  Biso 1.000000     O
    O   1.0     0.168336     0.959206     0.714758  Biso 1.000000     O
    O   1.0     0.682928     0.455623     0.714715  Biso 1.000000     O
    O   1.0     0.673687     0.959214     0.714718  Biso 1.000000     O
    O   1.0     0.200689     0.471847     0.880460  Biso 1.000000     O
    O   1.0     0.191438     0.975435     0.880461  Biso 1.000000     O
    O   1.0     0.705744     0.471839     0.880454  Biso 1.000000     O
    O   1.0     0.696494     0.975423     0.880458  Biso 1.000000     O
    O   1.0     0.191601     0.282586     0.866480  Biso 1.000000     O
    O   1.0     0.182489     0.786195     0.866480  Biso 1.000000     O
    O   1.0     0.697563     0.282670     0.866503  Biso 1.000000     O
    O   1.0     0.688331     0.786257     0.866497  Biso 1.000000     O
    O   1.0     0.162409     0.264831     0.701504  Biso 1.000000     O
    O   1.0     0.153181     0.768421     0.701521  Biso 1.000000     O
    O   1.0     0.667159     0.264752     0.701700  Biso 1.000000     O
    O   1.0     0.657928     0.768341     0.701695  Biso 1.000000     O
    O   1.0     0.073699     0.350777     0.688930  Biso 1.000000     O
    O   1.0     0.064459     0.854353     0.688927  Biso 1.000000     O
    O   1.0     0.578848     0.350721     0.688732  Biso 1.000000     O
    O   1.0     0.569611     0.854307     0.688730  Biso 1.000000     O
    O   1.0     0.097082     0.366755     0.854563  Biso 1.000000     O
    O   1.0     0.087848     0.870326     0.854559  Biso 1.000000     O
    O   1.0     0.603267     0.366659     0.854317  Biso 1.000000     O
    O   1.0     0.594026     0.870244     0.854315  Biso 1.000000     O
    O   1.0     0.265944     0.366716     0.710451  Biso 1.000000     O
    O   1.0     0.256704     0.870308     0.710453  Biso 1.000000     O
    O   1.0     0.771024     0.366461     0.710409  Biso 1.000000     O
    O   1.0     0.761786     0.870044     0.710412  Biso 1.000000     O
    O   1.0     0.290266     0.387852     0.875712  Biso 1.000000     O
    O   1.0     0.281042     0.891473     0.875711  Biso 1.000000     O
    O   1.0     0.795993     0.388083     0.875503  Biso 1.000000     O
    O   1.0     0.786756     0.891666     0.875505  Biso 1.000000     O
    O   1.0     0.358493     0.066194     0.300282  Biso 1.000000     O
    O   1.0     0.349252     0.569784     0.300284  Biso 1.000000     O
    O   1.0     0.863853     0.066204     0.300241  Biso 1.000000     O
    O   1.0     0.854572     0.569786     0.300243  Biso 1.000000     O
    O   1.0     0.335687     0.049984     0.134542  Biso 1.000000     O
    O   1.0     0.326437     0.553569     0.134544  Biso 1.000000     O
    O   1.0     0.840742     0.049972     0.134539  Biso 1.000000     O
    O   1.0     0.831490     0.553560     0.134539  Biso 1.000000     O
    O   1.0     0.343848     0.239150     0.148501  Biso 1.000000     O
    O   1.0     0.334616     0.742737     0.148498  Biso 1.000000     O
    O   1.0     0.849694     0.239213     0.148518  Biso 1.000000     O
    O   1.0     0.840586     0.742823     0.148520  Biso 1.000000     O
    O   1.0     0.374252     0.257066     0.313304  Biso 1.000000     O
    O   1.0     0.365020     0.760654     0.313300  Biso 1.000000     O
    O   1.0     0.879000     0.256987     0.313478  Biso 1.000000     O
    O   1.0     0.869773     0.760576     0.313496  Biso 1.000000     O
    O   1.0     0.462570     0.171100     0.326269  Biso 1.000000     O
    O   1.0     0.453332     0.674687     0.326266  Biso 1.000000     O
    O   1.0     0.967723     0.171056     0.326072  Biso 1.000000     O
    O   1.0     0.958482     0.674632     0.326067  Biso 1.000000     O
    O   1.0     0.438154     0.155163     0.160684  Biso 1.000000     O
    O   1.0     0.428913     0.658749     0.160681  Biso 1.000000     O
    O   1.0     0.944333     0.155081     0.160440  Biso 1.000000     O
    O   1.0     0.935098     0.658652     0.160435  Biso 1.000000     O
    O   1.0     0.270394     0.155363     0.304587  Biso 1.000000     O
    O   1.0     0.261156     0.658946     0.304590  Biso 1.000000     O
    O   1.0     0.775477     0.155100     0.304546  Biso 1.000000     O
    O   1.0     0.766236     0.658690     0.304547  Biso 1.000000     O
    O   1.0     0.245425     0.133741     0.139494  Biso 1.000000     O
    O   1.0     0.236187     0.637324     0.139496  Biso 1.000000     O
    O   1.0     0.751140     0.133936     0.139288  Biso 1.000000     O
    O   1.0     0.741915     0.637557     0.139287  Biso 1.000000     O
   Zn   1.0     0.195529     0.378024     0.892342  Biso 1.000000    Zn
   Zn   1.0     0.186299     0.881614     0.892341  Biso 1.000000    Zn
   Zn   1.0     0.701946     0.378156     0.892473  Biso 1.000000    Zn
   Zn   1.0     0.692708     0.881741     0.892472  Biso 1.000000    Zn
   Zn   1.0     0.168239     0.358570     0.681041  Biso 1.000000    Zn
   Zn   1.0     0.159000     0.862157     0.681042  Biso 1.000000    Zn
   Zn   1.0     0.673022     0.358491     0.680907  Biso 1.000000    Zn
   Zn   1.0     0.663786     0.862080     0.680907  Biso 1.000000    Zn
   Zn   1.0     0.339472     0.143665     0.122527  Biso 1.000000    Zn
   Zn   1.0     0.330234     0.647251     0.122526  Biso 1.000000    Zn
   Zn   1.0     0.845881     0.143793     0.122657  Biso 1.000000    Zn
   Zn   1.0     0.836651     0.647383     0.122657  Biso 1.000000    Zn
   Zn   1.0     0.368394     0.163328     0.334092  Biso 1.000000    Zn
   Zn   1.0     0.359158     0.666916     0.334092  Biso 1.000000    Zn
   Zn   1.0     0.873180     0.163250     0.333957  Biso 1.000000    Zn
   Zn   1.0     0.863941     0.666838     0.333957  Biso 1.000000    Zn
