#======================================================================

# CRYSTAL DATA

#----------------------------------------------------------------------

data_VESTA_phase_1


_pd_phase_name                         MOF
_cell_length_a                         14.64700
_cell_length_b                         20.81700
_cell_length_c                         16.59600
_cell_angle_alpha                      89.99700
_cell_angle_beta                       90.00600
_cell_angle_gamma                      90.00400
_symmetry_space_group_name_H-M         "P 1"
_symmetry_Int_Tables_number            1

loop_
_symmetry_equiv_pos_as_xyz
   "x, y, z"

loop_
   _atom_site_label
   _atom_site_occupancy
   _atom_site_fract_x
   _atom_site_fract_y
   _atom_site_fract_z
   _atom_site_adp_type
   _atom_site_B_iso_or_equiv
   _atom_site_type_symbol
    H   1.0     0.062543     0.029525     0.291087  Biso 1.000000     H
    H   1.0     0.062538     0.529512     0.291094  Biso 1.000000     H
    H   1.0     0.562532     0.029525     0.291090  Biso 1.000000     H
    H   1.0     0.562527     0.529513     0.291096  Biso 1.000000     H
    H   1.0     0.099444     0.473968     0.215201  Biso 1.000000     H
    H   1.0     0.099448     0.973958     0.215193  Biso 1.000000     H
    H   1.0     0.599435     0.473967     0.215201  Biso 1.000000     H
    H   1.0     0.599439     0.973957     0.215193  Biso 1.000000     H
    H   1.0     0.441816     0.161334     0.142874  Biso 1.000000     H
    H   1.0     0.441812     0.661320     0.142878  Biso 1.000000     H
    H   1.0     0.941807     0.161332     0.142874  Biso 1.000000     H
    H   1.0     0.941802     0.661319     0.142879  Biso 1.000000     H
    H   1.0     0.465597     0.143459     0.246030  Biso 1.000000     H
    H   1.0     0.465592     0.643447     0.246033  Biso 1.000000     H
    H   1.0     0.965588     0.143459     0.246026  Biso 1.000000     H
    H   1.0     0.965582     0.643446     0.246031  Biso 1.000000     H
    H   1.0     0.060640     0.499067     0.046292  Biso 1.000000     H
    H   1.0     0.060642     0.999058     0.046285  Biso 1.000000     H
    H   1.0     0.560631     0.499065     0.046292  Biso 1.000000     H
    H   1.0     0.560633     0.999056     0.046285  Biso 1.000000     H
    H   1.0     0.000947     0.070341     0.017646  Biso 1.000000     H
    H   1.0     0.000944     0.570327     0.017652  Biso 1.000000     H
    H   1.0     0.500935     0.070343     0.017644  Biso 1.000000     H
    H   1.0     0.500933     0.570328     0.017650  Biso 1.000000     H
    H   1.0     0.261950     0.082758     0.121115  Biso 1.000000     H
    H   1.0     0.261947     0.582746     0.121123  Biso 1.000000     H
    H   1.0     0.761946     0.082761     0.121115  Biso 1.000000     H
    H   1.0     0.761941     0.582747     0.121123  Biso 1.000000     H
    H   1.0     0.206028     0.007248     0.113769  Biso 1.000000     H
    H   1.0     0.206025     0.507234     0.113777  Biso 1.000000     H
    H   1.0     0.706016     0.007246     0.113769  Biso 1.000000     H
    H   1.0     0.706013     0.507233     0.113777  Biso 1.000000     H
    H   1.0     0.065465     0.174563     0.047667  Biso 1.000000     H
    H   1.0     0.065460     0.674550     0.047672  Biso 1.000000     H
    H   1.0     0.565451     0.174563     0.047667  Biso 1.000000     H
    H   1.0     0.565449     0.674549     0.047671  Biso 1.000000     H
    H   1.0     0.180020     0.180324     0.082898  Biso 1.000000     H
    H   1.0     0.180016     0.680312     0.082905  Biso 1.000000     H
    H   1.0     0.680016     0.180327     0.082899  Biso 1.000000     H
    H   1.0     0.680011     0.680313     0.082904  Biso 1.000000     H
    H   1.0     0.123993     0.138968     0.291859  Biso 1.000000     H
    H   1.0     0.123986     0.638956     0.291867  Biso 1.000000     H
    H   1.0     0.623982     0.138969     0.291862  Biso 1.000000     H
    H   1.0     0.623976     0.638957     0.291868  Biso 1.000000     H
    H   1.0     0.213393     0.159199     0.224462  Biso 1.000000     H
    H   1.0     0.213388     0.659186     0.224469  Biso 1.000000     H
    H   1.0     0.713386     0.159200     0.224461  Biso 1.000000     H
    H   1.0     0.713380     0.659187     0.224468  Biso 1.000000     H
    H   1.0     0.312521     0.279523     0.208923  Biso 1.000000     H
    H   1.0     0.312510     0.779510     0.208922  Biso 1.000000     H
    H   1.0     0.812511     0.279523     0.208923  Biso 1.000000     H
    H   1.0     0.812502     0.779510     0.208925  Biso 1.000000     H
    H   1.0     0.349444     0.223970     0.284817  Biso 1.000000     H
    H   1.0     0.349436     0.723961     0.284820  Biso 1.000000     H
    H   1.0     0.849434     0.223970     0.284817  Biso 1.000000     H
    H   1.0     0.849426     0.723962     0.284822  Biso 1.000000     H
    H   1.0     0.191853     0.411320     0.357145  Biso 1.000000     H
    H   1.0     0.191834     0.911311     0.357134  Biso 1.000000     H
    H   1.0     0.691843     0.411320     0.357145  Biso 1.000000     H
    H   1.0     0.691824     0.911311     0.357134  Biso 1.000000     H
    H   1.0     0.215605     0.393457     0.253991  Biso 1.000000     H
    H   1.0     0.215588     0.893444     0.253981  Biso 1.000000     H
    H   1.0     0.715595     0.393457     0.253990  Biso 1.000000     H
    H   1.0     0.715580     0.893444     0.253982  Biso 1.000000     H
    H   1.0     0.310682     0.249052     0.453726  Biso 1.000000     H
    H   1.0     0.310670     0.749050     0.453728  Biso 1.000000     H
    H   1.0     0.810672     0.249052     0.453726  Biso 1.000000     H
    H   1.0     0.810659     0.749052     0.453729  Biso 1.000000     H
    H   1.0     0.250998     0.320313     0.482369  Biso 1.000000     H
    H   1.0     0.250982     0.820312     0.482366  Biso 1.000000     H
    H   1.0     0.750988     0.320314     0.482369  Biso 1.000000     H
    H   1.0     0.750972     0.820312     0.482365  Biso 1.000000     H
    H   1.0     0.011989     0.332733     0.378895  Biso 1.000000     H
    H   1.0     0.011972     0.832733     0.378894  Biso 1.000000     H
    H   1.0     0.511978     0.332732     0.378895  Biso 1.000000     H
    H   1.0     0.511964     0.832734     0.378892  Biso 1.000000     H
    H   1.0     0.456049     0.257223     0.386238  Biso 1.000000     H
    H   1.0     0.456039     0.757221     0.386240  Biso 1.000000     H
    H   1.0     0.956039     0.257223     0.386238  Biso 1.000000     H
    H   1.0     0.956029     0.757223     0.386242  Biso 1.000000     H
    H   1.0     0.315518     0.424536     0.452349  Biso 1.000000     H
    H   1.0     0.315496     0.924535     0.452339  Biso 1.000000     H
    H   1.0     0.815508     0.424536     0.452349  Biso 1.000000     H
    H   1.0     0.815486     0.924535     0.452339  Biso 1.000000     H
    H   1.0     0.430068     0.430297     0.417117  Biso 1.000000     H
    H   1.0     0.430048     0.930298     0.417106  Biso 1.000000     H
    H   1.0     0.930058     0.430298     0.417117  Biso 1.000000     H
    H   1.0     0.930035     0.930298     0.417108  Biso 1.000000     H
    H   1.0     0.373979     0.388965     0.208155  Biso 1.000000     H
    H   1.0     0.373961     0.888954     0.208145  Biso 1.000000     H
    H   1.0     0.873969     0.388965     0.208155  Biso 1.000000     H
    H   1.0     0.873953     0.888954     0.208148  Biso 1.000000     H
    H   1.0     0.463398     0.409185     0.275551  Biso 1.000000     H
    H   1.0     0.463380     0.909180     0.275542  Biso 1.000000     H
    H   1.0     0.963388     0.409185     0.275551  Biso 1.000000     H
    H   1.0     0.963370     0.909180     0.275543  Biso 1.000000     H
    H   1.0     0.312510     0.470464     0.708929  Biso 1.000000     H
    H   1.0     0.312501     0.970453     0.708931  Biso 1.000000     H
    H   1.0     0.812501     0.470463     0.708928  Biso 1.000000     H
    H   1.0     0.812491     0.970454     0.708932  Biso 1.000000     H
    H   1.0     0.349439     0.026022     0.784826  Biso 1.000000     H
    H   1.0     0.349444     0.526015     0.784818  Biso 1.000000     H
    H   1.0     0.849427     0.026023     0.784825  Biso 1.000000     H
    H   1.0     0.849437     0.526014     0.784821  Biso 1.000000     H
    H   1.0     0.191831     0.338656     0.857162  Biso 1.000000     H
    H   1.0     0.191809     0.838642     0.857152  Biso 1.000000     H
    H   1.0     0.691819     0.338655     0.857161  Biso 1.000000     H
    H   1.0     0.691802     0.838642     0.857152  Biso 1.000000     H
    H   1.0     0.215582     0.356526     0.754005  Biso 1.000000     H
    H   1.0     0.215564     0.856517     0.753995  Biso 1.000000     H
    H   1.0     0.715570     0.356526     0.754002  Biso 1.000000     H
    H   1.0     0.715556     0.856517     0.753998  Biso 1.000000     H
    H   1.0     0.310676     0.000923     0.953736  Biso 1.000000     H
    H   1.0     0.310688     0.500922     0.953730  Biso 1.000000     H
    H   1.0     0.810666     0.000923     0.953735  Biso 1.000000     H
    H   1.0     0.810679     0.500922     0.953732  Biso 1.000000     H
    H   1.0     0.250996     0.429659     0.982380  Biso 1.000000     H
    H   1.0     0.250976     0.929636     0.982379  Biso 1.000000     H
    H   1.0     0.750982     0.429656     0.982381  Biso 1.000000     H
    H   1.0     0.750969     0.929638     0.982378  Biso 1.000000     H
    H   1.0     0.011982     0.417247     0.878899  Biso 1.000000     H
    H   1.0     0.011964     0.917228     0.878898  Biso 1.000000     H
    H   1.0     0.511969     0.417253     0.878896  Biso 1.000000     H
    H   1.0     0.511955     0.917224     0.878900  Biso 1.000000     H
    H   1.0     0.456051     0.492760     0.886238  Biso 1.000000     H
    H   1.0     0.456039     0.992736     0.886246  Biso 1.000000     H
    H   1.0     0.956040     0.492757     0.886241  Biso 1.000000     H
    H   1.0     0.956030     0.992738     0.886245  Biso 1.000000     H
    H   1.0     0.315499     0.325439     0.952362  Biso 1.000000     H
    H   1.0     0.315470     0.825416     0.952354  Biso 1.000000     H
    H   1.0     0.815483     0.325437     0.952361  Biso 1.000000     H
    H   1.0     0.815465     0.825417     0.952355  Biso 1.000000     H
    H   1.0     0.430046     0.319683     0.917125  Biso 1.000000     H
    H   1.0     0.430023     0.819655     0.917120  Biso 1.000000     H
    H   1.0     0.930036     0.319678     0.917126  Biso 1.000000     H
    H   1.0     0.930013     0.819660     0.917119  Biso 1.000000     H
    H   1.0     0.373952     0.361025     0.708163  Biso 1.000000     H
    H   1.0     0.373936     0.861011     0.708158  Biso 1.000000     H
    H   1.0     0.873942     0.361023     0.708163  Biso 1.000000     H
    H   1.0     0.873927     0.861013     0.708158  Biso 1.000000     H
    H   1.0     0.463375     0.340802     0.775556  Biso 1.000000     H
    H   1.0     0.463356     0.840782     0.775554  Biso 1.000000     H
    H   1.0     0.963364     0.340799     0.775558  Biso 1.000000     H
    H   1.0     0.963347     0.840784     0.775552  Biso 1.000000     H
    H   1.0     0.062529     0.220463     0.791114  Biso 1.000000     H
    H   1.0     0.062532     0.720450     0.791109  Biso 1.000000     H
    H   1.0     0.562518     0.220463     0.791116  Biso 1.000000     H
    H   1.0     0.562521     0.720450     0.791109  Biso 1.000000     H
    H   1.0     0.099443     0.276020     0.715223  Biso 1.000000     H
    H   1.0     0.099446     0.776006     0.715217  Biso 1.000000     H
    H   1.0     0.599436     0.276019     0.715221  Biso 1.000000     H
    H   1.0     0.599435     0.776008     0.715219  Biso 1.000000     H
    H   1.0     0.441791     0.088667     0.642892  Biso 1.000000     H
    H   1.0     0.441799     0.588655     0.642885  Biso 1.000000     H
    H   1.0     0.941784     0.088668     0.642891  Biso 1.000000     H
    H   1.0     0.941786     0.588654     0.642887  Biso 1.000000     H
    H   1.0     0.465573     0.106532     0.746049  Biso 1.000000     H
    H   1.0     0.465581     0.606519     0.746040  Biso 1.000000     H
    H   1.0     0.965567     0.106532     0.746045  Biso 1.000000     H
    H   1.0     0.965568     0.606519     0.746042  Biso 1.000000     H
    H   1.0     0.060642     0.250940     0.546313  Biso 1.000000     H
    H   1.0     0.060643     0.750926     0.546307  Biso 1.000000     H
    H   1.0     0.560632     0.250939     0.546312  Biso 1.000000     H
    H   1.0     0.560632     0.750929     0.546308  Biso 1.000000     H
    H   1.0     0.000938     0.179678     0.517666  Biso 1.000000     H
    H   1.0     0.000939     0.679664     0.517661  Biso 1.000000     H
    H   1.0     0.500925     0.179674     0.517665  Biso 1.000000     H
    H   1.0     0.500930     0.679666     0.517661  Biso 1.000000     H
    H   1.0     0.261940     0.167263     0.621143  Biso 1.000000     H
    H   1.0     0.261943     0.667247     0.621135  Biso 1.000000     H
    H   1.0     0.761933     0.167255     0.621142  Biso 1.000000     H
    H   1.0     0.761934     0.667252     0.621135  Biso 1.000000     H
    H   1.0     0.206020     0.242765     0.613801  Biso 1.000000     H
    H   1.0     0.206023     0.742755     0.613793  Biso 1.000000     H
    H   1.0     0.706010     0.242765     0.613799  Biso 1.000000     H
    H   1.0     0.706012     0.742758     0.613795  Biso 1.000000     H
    H   1.0     0.065447     0.075458     0.547688  Biso 1.000000     H
    H   1.0     0.065443     0.575443     0.547681  Biso 1.000000     H
    H   1.0     0.565428     0.075455     0.547687  Biso 1.000000     H
    H   1.0     0.565438     0.575446     0.547679  Biso 1.000000     H
    H   1.0     0.179998     0.069693     0.582916  Biso 1.000000     H
    H   1.0     0.180002     0.569679     0.582911  Biso 1.000000     H
    H   1.0     0.679990     0.069688     0.582918  Biso 1.000000     H
    H   1.0     0.679995     0.569683     0.582909  Biso 1.000000     H
    H   1.0     0.123972     0.111024     0.791875  Biso 1.000000     H
    H   1.0     0.123973     0.611010     0.791875  Biso 1.000000     H
    H   1.0     0.623958     0.111022     0.791881  Biso 1.000000     H
    H   1.0     0.623966     0.611011     0.791873  Biso 1.000000     H
    H   1.0     0.213370     0.090805     0.724485  Biso 1.000000     H
    H   1.0     0.213373     0.590791     0.724477  Biso 1.000000     H
    H   1.0     0.713359     0.090802     0.724484  Biso 1.000000     H
    H   1.0     0.713366     0.590794     0.724476  Biso 1.000000     H
    C   1.0     0.083768     0.024820     0.227691  Biso 1.000000     C
    C   1.0     0.083763     0.524807     0.227699  Biso 1.000000     C
    C   1.0     0.583756     0.024818     0.227696  Biso 1.000000     C
    C   1.0     0.583752     0.524806     0.227701  Biso 1.000000     C
    C   1.0     0.489544     0.136518     0.183639  Biso 1.000000     C
    C   1.0     0.489541     0.636504     0.183642  Biso 1.000000     C
    C   1.0     0.989538     0.136516     0.183636  Biso 1.000000     C
    C   1.0     0.989534     0.636504     0.183641  Biso 1.000000     C
    C   1.0     0.045951     0.049104     0.063994  Biso 1.000000     C
    C   1.0     0.045949     0.549091     0.064000  Biso 1.000000     C
    C   1.0     0.545937     0.049102     0.063990  Biso 1.000000     C
    C   1.0     0.545936     0.549089     0.063997  Biso 1.000000     C
    C   1.0     0.195870     0.058431     0.127264  Biso 1.000000     C
    C   1.0     0.195868     0.558417     0.127271  Biso 1.000000     C
    C   1.0     0.695869     0.058431     0.127260  Biso 1.000000     C
    C   1.0     0.695863     0.558417     0.127268  Biso 1.000000     C
    C   1.0     0.115525     0.153908     0.089611  Biso 1.000000     C
    C   1.0     0.115520     0.653896     0.089615  Biso 1.000000     C
    C   1.0     0.615520     0.153912     0.089606  Biso 1.000000     C
    C   1.0     0.615515     0.653898     0.089612  Biso 1.000000     C
    C   1.0     0.148374     0.133423     0.229792  Biso 1.000000     C
    C   1.0     0.148368     0.633411     0.229801  Biso 1.000000     C
    C   1.0     0.648366     0.133425     0.229796  Biso 1.000000     C
    C   1.0     0.648360     0.633412     0.229801  Biso 1.000000     C
    C   1.0     0.333762     0.274810     0.272318  Biso 1.000000     C
    C   1.0     0.333751     0.774801     0.272317  Biso 1.000000     C
    C   1.0     0.833752     0.274810     0.272318  Biso 1.000000     C
    C   1.0     0.833742     0.774802     0.272320  Biso 1.000000     C
    C   1.0     0.239571     0.386507     0.316380  Biso 1.000000     C
    C   1.0     0.239554     0.886498     0.316371  Biso 1.000000     C
    C   1.0     0.739560     0.386507     0.316380  Biso 1.000000     C
    C   1.0     0.739545     0.886497     0.316372  Biso 1.000000     C
    C   1.0     0.295986     0.299078     0.436021  Biso 1.000000     C
    C   1.0     0.295973     0.799075     0.436020  Biso 1.000000     C
    C   1.0     0.795976     0.299078     0.436021  Biso 1.000000     C
    C   1.0     0.795963     0.799077     0.436019  Biso 1.000000     C
    C   1.0     0.445895     0.308409     0.372747  Biso 1.000000     C
    C   1.0     0.445884     0.808406     0.372747  Biso 1.000000     C
    C   1.0     0.945886     0.308409     0.372748  Biso 1.000000     C
    C   1.0     0.945870     0.808407     0.372747  Biso 1.000000     C
    C   1.0     0.365569     0.403884     0.410406  Biso 1.000000     C
    C   1.0     0.365550     0.903884     0.410400  Biso 1.000000     C
    C   1.0     0.865559     0.403885     0.410406  Biso 1.000000     C
    C   1.0     0.865538     0.903883     0.410398  Biso 1.000000     C
    C   1.0     0.398375     0.383413     0.270222  Biso 1.000000     C
    C   1.0     0.398359     0.883406     0.270212  Biso 1.000000     C
    C   1.0     0.898365     0.383413     0.270221  Biso 1.000000     C
    C   1.0     0.898348     0.883405     0.270215  Biso 1.000000     C
    C   1.0     0.333754     0.475175     0.772323  Biso 1.000000     C
    C   1.0     0.333745     0.975161     0.772325  Biso 1.000000     C
    C   1.0     0.833745     0.475175     0.772322  Biso 1.000000     C
    C   1.0     0.833735     0.975161     0.772326  Biso 1.000000     C
    C   1.0     0.239550     0.363473     0.816394  Biso 1.000000     C
    C   1.0     0.239530     0.863458     0.816386  Biso 1.000000     C
    C   1.0     0.739536     0.363471     0.816391  Biso 1.000000     C
    C   1.0     0.739524     0.863459     0.816388  Biso 1.000000     C
    C   1.0     0.295986     0.450897     0.936028  Biso 1.000000     C
    C   1.0     0.295967     0.950876     0.936031  Biso 1.000000     C
    C   1.0     0.795971     0.450897     0.936031  Biso 1.000000     C
    C   1.0     0.795961     0.950876     0.936029  Biso 1.000000     C
    C   1.0     0.445889     0.441575     0.872749  Biso 1.000000     C
    C   1.0     0.445879     0.941551     0.872755  Biso 1.000000     C
    C   1.0     0.945883     0.441571     0.872754  Biso 1.000000     C
    C   1.0     0.945866     0.941554     0.872752  Biso 1.000000     C
    C   1.0     0.365550     0.346094     0.910415  Biso 1.000000     C
    C   1.0     0.365529     0.846069     0.910414  Biso 1.000000     C
    C   1.0     0.865540     0.346089     0.910419  Biso 1.000000     C
    C   1.0     0.865519     0.846072     0.910411  Biso 1.000000     C
    C   1.0     0.398355     0.366573     0.770228  Biso 1.000000     C
    C   1.0     0.398339     0.866555     0.770223  Biso 1.000000     C
    C   1.0     0.898345     0.366571     0.770227  Biso 1.000000     C
    C   1.0     0.898330     0.866558     0.770223  Biso 1.000000     C
    C   1.0     0.083755     0.225179     0.727719  Biso 1.000000     C
    C   1.0     0.083759     0.725165     0.727714  Biso 1.000000     C
    C   1.0     0.583745     0.225179     0.727722  Biso 1.000000     C
    C   1.0     0.583748     0.725166     0.727715  Biso 1.000000     C
    C   1.0     0.489521     0.113480     0.683659  Biso 1.000000     C
    C   1.0     0.489531     0.613469     0.683649  Biso 1.000000     C
    C   1.0     0.989516     0.113482     0.683655  Biso 1.000000     C
    C   1.0     0.989518     0.613468     0.683651  Biso 1.000000     C
    C   1.0     0.045941     0.200913     0.564017  Biso 1.000000     C
    C   1.0     0.045942     0.700899     0.564011  Biso 1.000000     C
    C   1.0     0.545928     0.200912     0.564014  Biso 1.000000     C
    C   1.0     0.545933     0.700902     0.564011  Biso 1.000000     C
    C   1.0     0.195858     0.191579     0.627292  Biso 1.000000     C
    C   1.0     0.195865     0.691569     0.627283  Biso 1.000000     C
    C   1.0     0.695856     0.191578     0.627287  Biso 1.000000     C
    C   1.0     0.695855     0.691572     0.627284  Biso 1.000000     C
    C   1.0     0.115510     0.096109     0.589633  Biso 1.000000     C
    C   1.0     0.115511     0.596093     0.589623  Biso 1.000000     C
    C   1.0     0.615500     0.096102     0.589628  Biso 1.000000     C
    C   1.0     0.615504     0.596096     0.589623  Biso 1.000000     C
    C   1.0     0.148353     0.116578     0.729808  Biso 1.000000     C
    C   1.0     0.148356     0.616563     0.729808  Biso 1.000000     C
    C   1.0     0.648343     0.116574     0.729815  Biso 1.000000     C
    C   1.0     0.648348     0.616565     0.729806  Biso 1.000000     C
    N   1.0     0.166446     0.064689     0.212705  Biso 1.000000     N
    N   1.0     0.166439     0.564678     0.212710  Biso 1.000000     N
    N   1.0     0.666427     0.064692     0.212697  Biso 1.000000     N
    N   1.0     0.666424     0.564679     0.212705  Biso 1.000000     N
    N   1.0     0.131606     0.086365     0.069539  Biso 1.000000     N
    N   1.0     0.131603     0.586352     0.069548  Biso 1.000000     N
    N   1.0     0.631589     0.086364     0.069548  Biso 1.000000     N
    N   1.0     0.631588     0.586351     0.069552  Biso 1.000000     N
    N   1.0     0.082561     0.163984     0.173626  Biso 1.000000     N
    N   1.0     0.082557     0.663969     0.173631  Biso 1.000000     N
    N   1.0     0.582551     0.163975     0.173622  Biso 1.000000     N
    N   1.0     0.582547     0.663964     0.173627  Biso 1.000000     N
    N   1.0     0.416444     0.314677     0.287309  Biso 1.000000     N
    N   1.0     0.416428     0.814671     0.287310  Biso 1.000000     N
    N   1.0     0.916433     0.314677     0.287310  Biso 1.000000     N
    N   1.0     0.916422     0.814671     0.287307  Biso 1.000000     N
    N   1.0     0.381642     0.336336     0.430471  Biso 1.000000     N
    N   1.0     0.381626     0.836336     0.430464  Biso 1.000000     N
    N   1.0     0.881631     0.336337     0.430470  Biso 1.000000     N
    N   1.0     0.881617     0.836337     0.430469  Biso 1.000000     N
    N   1.0     0.332579     0.413967     0.326393  Biso 1.000000     N
    N   1.0     0.332562     0.913958     0.326384  Biso 1.000000     N
    N   1.0     0.832569     0.413966     0.326393  Biso 1.000000     N
    N   1.0     0.832551     0.913961     0.326383  Biso 1.000000     N
    N   1.0     0.416431     0.435309     0.787311  Biso 1.000000     N
    N   1.0     0.416415     0.935289     0.787320  Biso 1.000000     N
    N   1.0     0.916417     0.435306     0.787319  Biso 1.000000     N
    N   1.0     0.916409     0.935292     0.787314  Biso 1.000000     N
    N   1.0     0.381636     0.413641     0.930476  Biso 1.000000     N
    N   1.0     0.381613     0.913617     0.930472  Biso 1.000000     N
    N   1.0     0.881618     0.413639     0.930472  Biso 1.000000     N
    N   1.0     0.881609     0.913618     0.930475  Biso 1.000000     N
    N   1.0     0.332556     0.336016     0.826403  Biso 1.000000     N
    N   1.0     0.332536     0.836003     0.826399  Biso 1.000000     N
    N   1.0     0.832543     0.336019     0.826406  Biso 1.000000     N
    N   1.0     0.832528     0.836000     0.826397  Biso 1.000000     N
    N   1.0     0.166431     0.185316     0.712733  Biso 1.000000     N
    N   1.0     0.166431     0.685300     0.712722  Biso 1.000000     N
    N   1.0     0.666413     0.185311     0.712723  Biso 1.000000     N
    N   1.0     0.666422     0.685303     0.712723  Biso 1.000000     N
    N   1.0     0.131591     0.163656     0.569560  Biso 1.000000     N
    N   1.0     0.131591     0.663641     0.569561  Biso 1.000000     N
    N   1.0     0.631574     0.163652     0.569570  Biso 1.000000     N
    N   1.0     0.631583     0.663645     0.569559  Biso 1.000000     N
    N   1.0     0.082535     0.086019     0.673644  Biso 1.000000     N
    N   1.0     0.082539     0.586010     0.673637  Biso 1.000000     N
    N   1.0     0.582524     0.086026     0.673641  Biso 1.000000     N
    N   1.0     0.582532     0.586011     0.673636  Biso 1.000000     N
    O   1.0     0.398750     0.516378     0.170317  Biso 1.000000     O
    O   1.0     0.398755     0.000000     0.170314  Biso 1.000000     O
    O   1.0     0.898737     0.516376     0.170318  Biso 1.000000     O
    O   1.0     0.898740     0.000000     0.170315  Biso 1.000000     O
    O   1.0     0.148769     0.266382     0.329697  Biso 1.000000     O
    O   1.0     0.148760     0.766371     0.329698  Biso 1.000000     O
    O   1.0     0.648760     0.266382     0.329698  Biso 1.000000     O
    O   1.0     0.648749     0.766371     0.329697  Biso 1.000000     O
    O   1.0     0.148761    -0.016394     0.829710  Biso 1.000000     O
    O   1.0     0.148768     0.483595     0.829709  Biso 1.000000     O
    O   1.0     0.648748    -0.016394     0.829710  Biso 1.000000     O
    O   1.0     0.648761     0.483594     0.829710  Biso 1.000000     O
    O   1.0     0.398748     0.233604     0.670332  Biso 1.000000     O
    O   1.0     0.398748     0.733592     0.670330  Biso 1.000000     O
    O   1.0     0.898734     0.233605     0.670333  Biso 1.000000     O
    O   1.0     0.898738     0.733593     0.670330  Biso 1.000000     O
    P   1.0    -0.010781     0.050265     0.162107  Biso 1.000000     P
    P   1.0    -0.010784     0.550252     0.162112  Biso 1.000000     P
    P   1.0     0.489213     0.050266     0.162107  Biso 1.000000     P
    P   1.0     0.489208     0.550253     0.162112  Biso 1.000000     P
    P   1.0     0.239233     0.300253     0.337906  Biso 1.000000     P
    P   1.0     0.239221     0.800245     0.337904  Biso 1.000000     P
    P   1.0     0.739223     0.300253     0.337907  Biso 1.000000     P
    P   1.0     0.739210     0.800244     0.337905  Biso 1.000000     P
    P   1.0     0.239226     0.449726     0.837917  Biso 1.000000     P
    P   1.0     0.239216     0.949710     0.837916  Biso 1.000000     P
    P   1.0     0.739218     0.449724     0.837917  Biso 1.000000     P
    P   1.0     0.739204     0.949711     0.837917  Biso 1.000000     P
    P   1.0    -0.010791     0.199736     0.662129  Biso 1.000000     P
    P   1.0    -0.010787     0.699722     0.662124  Biso 1.000000     P
    P   1.0     0.489202     0.199733     0.662128  Biso 1.000000     P
    P   1.0     0.489203     0.699723     0.662124  Biso 1.000000     P
   Ag   1.0     0.315233     0.035345     0.301285  Biso 1.000000    Ag
   Ag   1.0     0.315245     0.535329     0.301296  Biso 1.000000    Ag
   Ag   1.0     0.815223     0.035345     0.301285  Biso 1.000000    Ag
   Ag   1.0     0.815235     0.535329     0.301296  Biso 1.000000    Ag
   Ag   1.0     0.369419     0.134280     0.915295  Biso 1.000000    Ag
   Ag   1.0     0.369455     0.634276     0.915281  Biso 1.000000    Ag
   Ag   1.0     0.869411     0.134282     0.915295  Biso 1.000000    Ag
   Ag   1.0     0.869440     0.634275     0.915281  Biso 1.000000    Ag
   Ag   1.0     0.065236     0.285342     0.198720  Biso 1.000000    Ag
   Ag   1.0     0.065226     0.785330     0.198720  Biso 1.000000    Ag
   Ag   1.0     0.565226     0.285342     0.198720  Biso 1.000000    Ag
   Ag   1.0     0.565218     0.785330     0.198719  Biso 1.000000    Ag
   Ag   1.0     0.619405     0.384286     0.584753  Biso 1.000000    Ag
   Ag   1.0     0.619383     0.884278     0.584749  Biso 1.000000    Ag
   Ag   1.0     0.000000     0.384288     0.584753  Biso 1.000000    Ag
   Ag   1.0     0.000000     0.884276     0.584748  Biso 1.000000    Ag
   Ag   1.0     0.065218     0.464647     0.698730  Biso 1.000000    Ag
   Ag   1.0     0.065212     0.964638     0.698730  Biso 1.000000    Ag
   Ag   1.0     0.565212     0.464650     0.698727  Biso 1.000000    Ag
   Ag   1.0     0.565198     0.964636     0.698732  Biso 1.000000    Ag
   Ag   1.0     0.619379     0.365716     0.084728  Biso 1.000000    Ag
   Ag   1.0     0.619353     0.865704     0.084721  Biso 1.000000    Ag
   Ag   1.0     0.000000     0.365716     0.084728  Biso 1.000000    Ag
   Ag   1.0     0.000000     0.865703     0.084721  Biso 1.000000    Ag
   Ag   1.0     0.315227     0.214655     0.801313  Biso 1.000000    Ag
   Ag   1.0     0.315211     0.714637     0.801302  Biso 1.000000    Ag
   Ag   1.0     0.815214     0.214653     0.801311  Biso 1.000000    Ag
   Ag   1.0     0.815204     0.714640     0.801303  Biso 1.000000    Ag
   Ag   1.0     0.369439     0.115704     0.415274  Biso 1.000000    Ag
   Ag   1.0     0.369410     0.615700     0.415287  Biso 1.000000    Ag
   Ag   1.0     0.869430     0.115704     0.415274  Biso 1.000000    Ag
   Ag   1.0     0.869397     0.615700     0.415288  Biso 1.000000    Ag
