#======================================================================

# CRYSTAL DATA

#----------------------------------------------------------------------

data_VESTA_phase_1


_pd_phase_name                         MOF
_cell_length_a                         18.62600
_cell_length_b                         14.53600
_cell_length_c                         27.64900
_cell_angle_alpha                      89.93500
_cell_angle_beta                       89.86700
_cell_angle_gamma                      92.54300
_symmetry_space_group_name_H-M         "P 1"
_symmetry_Int_Tables_number            1

loop_
_symmetry_equiv_pos_as_xyz
   "x, y, z"

loop_
   _atom_site_label
   _atom_site_occupancy
   _atom_site_fract_x
   _atom_site_fract_y
   _atom_site_fract_z
   _atom_site_adp_type
   _atom_site_B_iso_or_equiv
   _atom_site_type_symbol
    H   1.0     0.055321     0.330592     0.365789  Biso 1.000000     H
    H   1.0     0.555312     0.330592     0.365789  Biso 1.000000     H
    H   1.0     0.089676     0.555608     0.264939  Biso 1.000000     H
    H   1.0     0.589668     0.555607     0.264939  Biso 1.000000     H
    H   1.0     0.390767     0.391560     0.262702  Biso 1.000000     H
    H   1.0     0.890759     0.391561     0.262703  Biso 1.000000     H
    H   1.0     0.173613     0.355775     0.372924  Biso 1.000000     H
    H   1.0     0.673603     0.355776     0.372926  Biso 1.000000     H
    H   1.0     0.124556     0.433838     0.408558  Biso 1.000000     H
    H   1.0     0.624547     0.433841     0.408558  Biso 1.000000     H
    H   1.0     0.304846     0.390172     0.356420  Biso 1.000000     H
    H   1.0     0.804837     0.390162     0.356427  Biso 1.000000     H
    H   1.0     0.417877     0.463512     0.387581  Biso 1.000000     H
    H   1.0     0.917868     0.463501     0.387588  Biso 1.000000     H
    H   1.0     0.295912     0.643554     0.476321  Biso 1.000000     H
    H   1.0     0.795903     0.643566     0.476316  Biso 1.000000     H
    H   1.0     0.183335     0.565936     0.447370  Biso 1.000000     H
    H   1.0     0.683326     0.565948     0.447364  Biso 1.000000     H
    H   1.0    -0.007752     0.590283     0.385184  Biso 1.000000     H
    H   1.0     0.492237     0.590295     0.385181  Biso 1.000000     H
    H   1.0     0.104028     0.666398     0.415533  Biso 1.000000     H
    H   1.0     0.604017     0.666411     0.415530  Biso 1.000000     H
    H   1.0     0.003269     0.708265     0.553484  Biso 1.000000     H
    H   1.0     0.503264     0.708254     0.553486  Biso 1.000000     H
    H   1.0     0.390869     0.634272     0.523014  Biso 1.000000     H
    H   1.0     0.890858     0.634283     0.523012  Biso 1.000000     H
    H   1.0     0.122306     0.764082     0.542477  Biso 1.000000     H
    H   1.0     0.622298     0.764083     0.542476  Biso 1.000000     H
    H   1.0     0.172146     0.682062     0.510157  Biso 1.000000     H
    H   1.0     0.672138     0.682062     0.510157  Biso 1.000000     H
    H   1.0     0.211192     0.924724     0.415796  Biso 1.000000     H
    H   1.0     0.711184     0.924724     0.415796  Biso 1.000000     H
    H   1.0     0.413315     0.965862     0.490742  Biso 1.000000     H
    H   1.0     0.913306     0.965867     0.490743  Biso 1.000000     H
    H   1.0     0.250928     0.777875     0.548566  Biso 1.000000     H
    H   1.0     0.750920     0.777877     0.548567  Biso 1.000000     H
    H   1.0     0.445462     0.169018     0.866342  Biso 1.000000     H
    H   1.0     0.945455     0.169017     0.866344  Biso 1.000000     H
    H   1.0     0.410671     0.944385     0.765648  Biso 1.000000     H
    H   1.0     0.910663     0.944383     0.765651  Biso 1.000000     H
    H   1.0     0.109562     0.108557     0.762431  Biso 1.000000     H
    H   1.0     0.609555     0.108557     0.762431  Biso 1.000000     H
    H   1.0     0.327411     0.144500     0.873677  Biso 1.000000     H
    H   1.0     0.827404     0.144501     0.873679  Biso 1.000000     H
    H   1.0     0.375911     0.066154     0.909455  Biso 1.000000     H
    H   1.0     0.875903     0.066158     0.909459  Biso 1.000000     H
    H   1.0     0.196165     0.111546     0.857591  Biso 1.000000     H
    H   1.0     0.696159     0.111546     0.857592  Biso 1.000000     H
    H   1.0     0.082672     0.038212     0.888518  Biso 1.000000     H
    H   1.0     0.582664     0.038214     0.888518  Biso 1.000000     H
    H   1.0     0.203429     0.855994     0.976623  Biso 1.000000     H
    H   1.0     0.703420     0.856001     0.976627  Biso 1.000000     H
    H   1.0     0.316430     0.933745     0.948027  Biso 1.000000     H
    H   1.0     0.816421     0.933751     0.948032  Biso 1.000000     H
    H   1.0     0.507991     0.911619     0.885586  Biso 1.000000     H
    H   1.0     0.000000     0.911620     0.885585  Biso 1.000000     H
    H   1.0     0.395913     0.835153     0.915651  Biso 1.000000     H
    H   1.0     0.895902     0.835157     0.915650  Biso 1.000000     H
    H   1.0     0.495648     0.790529     0.053439  Biso 1.000000     H
    H   1.0     0.995642     0.790523     0.053437  Biso 1.000000     H
    H   1.0     0.108355     0.864557     0.023185  Biso 1.000000     H
    H   1.0     0.608345     0.864565     0.023189  Biso 1.000000     H
    H   1.0     0.376597     0.735823     0.042445  Biso 1.000000     H
    H   1.0     0.876589     0.735825     0.042444  Biso 1.000000     H
    H   1.0     0.326935     0.817679     0.009920  Biso 1.000000     H
    H   1.0     0.826926     0.817679     0.009919  Biso 1.000000     H
    H   1.0     0.289474     0.575783     0.915343  Biso 1.000000     H
    H   1.0     0.789467     0.575780     0.915344  Biso 1.000000     H
    H   1.0     0.086028     0.534493     0.989295  Biso 1.000000     H
    H   1.0     0.586020     0.534491     0.989295  Biso 1.000000     H
    H   1.0     0.247557     0.721893     0.047971  Biso 1.000000     H
    H   1.0     0.747549     0.721893     0.047971  Biso 1.000000     H
    H   1.0     0.444668     0.669387     0.634204  Biso 1.000000     H
    H   1.0     0.944660     0.669386     0.634203  Biso 1.000000     H
    H   1.0     0.410311     0.444375     0.735056  Biso 1.000000     H
    H   1.0     0.910303     0.444375     0.735056  Biso 1.000000     H
    H   1.0     0.109221     0.608419     0.737290  Biso 1.000000     H
    H   1.0     0.609214     0.608418     0.737290  Biso 1.000000     H
    H   1.0     0.326374     0.644200     0.627065  Biso 1.000000     H
    H   1.0     0.826368     0.644199     0.627063  Biso 1.000000     H
    H   1.0     0.375433     0.566133     0.591435  Biso 1.000000     H
    H   1.0     0.875427     0.566130     0.591434  Biso 1.000000     H
    H   1.0     0.195141     0.609804     0.643567  Biso 1.000000     H
    H   1.0     0.695134     0.609808     0.643564  Biso 1.000000     H
    H   1.0     0.082112     0.536457     0.612406  Biso 1.000000     H
    H   1.0     0.582105     0.536462     0.612403  Biso 1.000000     H
    H   1.0     0.204083     0.356401     0.523678  Biso 1.000000     H
    H   1.0     0.704074     0.356398     0.523678  Biso 1.000000     H
    H   1.0     0.316658     0.434025     0.552629  Biso 1.000000     H
    H   1.0     0.816650     0.434021     0.552629  Biso 1.000000     H
    H   1.0     0.507747     0.409670     0.614810  Biso 1.000000     H
    H   1.0     0.000000     0.409666     0.614811  Biso 1.000000     H
    H   1.0     0.395966     0.333557     0.584460  Biso 1.000000     H
    H   1.0     0.895959     0.333553     0.584460  Biso 1.000000     H
    H   1.0     0.496722     0.291709     0.446506  Biso 1.000000     H
    H   1.0     0.996715     0.291709     0.446506  Biso 1.000000     H
    H   1.0     0.109126     0.365687     0.476980  Biso 1.000000     H
    H   1.0     0.609118     0.365686     0.476979  Biso 1.000000     H
    H   1.0     0.377686     0.235880     0.457516  Biso 1.000000     H
    H   1.0     0.877679     0.235877     0.457516  Biso 1.000000     H
    H   1.0     0.327848     0.317909     0.489831  Biso 1.000000     H
    H   1.0     0.827841     0.317908     0.489830  Biso 1.000000     H
    H   1.0     0.288797     0.075251     0.584197  Biso 1.000000     H
    H   1.0     0.788789     0.075251     0.584197  Biso 1.000000     H
    H   1.0     0.086677     0.034104     0.509249  Biso 1.000000     H
    H   1.0     0.586668     0.034108     0.509250  Biso 1.000000     H
    H   1.0     0.249062     0.222096     0.451426  Biso 1.000000     H
    H   1.0     0.749055     0.222097     0.451426  Biso 1.000000     H
    H   1.0     0.054529     0.830959     0.133655  Biso 1.000000     H
    H   1.0     0.554522     0.830958     0.133657  Biso 1.000000     H
    H   1.0     0.089318     0.055596     0.234347  Biso 1.000000     H
    H   1.0     0.589310     0.055594     0.234350  Biso 1.000000     H
    H   1.0     0.390425     0.891426     0.237564  Biso 1.000000     H
    H   1.0     0.890418     0.891425     0.237564  Biso 1.000000     H
    H   1.0     0.172583     0.855474     0.126325  Biso 1.000000     H
    H   1.0     0.672577     0.855474     0.126327  Biso 1.000000     H
    H   1.0     0.124083     0.933810     0.090542  Biso 1.000000     H
    H   1.0     0.624076     0.933813     0.090546  Biso 1.000000     H
    H   1.0     0.303828     0.888431     0.142409  Biso 1.000000     H
    H   1.0     0.803822     0.888432     0.142411  Biso 1.000000     H
    H   1.0     0.417321     0.961764     0.111481  Biso 1.000000     H
    H   1.0     0.917314     0.961766     0.111482  Biso 1.000000     H
    H   1.0     0.296561     0.143969     0.023370  Biso 1.000000     H
    H   1.0     0.796552     0.143974     0.023374  Biso 1.000000     H
    H   1.0     0.183561     0.066217     0.051966  Biso 1.000000     H
    H   1.0     0.683553     0.066222     0.051971  Biso 1.000000     H
    H   1.0    -0.007995     0.088350     0.114411  Biso 1.000000     H
    H   1.0     0.491995     0.088350     0.114410  Biso 1.000000     H
    H   1.0     0.104083     0.164813     0.084345  Biso 1.000000     H
    H   1.0     0.604073     0.164815     0.084345  Biso 1.000000     H
    H   1.0     0.004338     0.209458     0.946562  Biso 1.000000     H
    H   1.0     0.504332     0.209453     0.946560  Biso 1.000000     H
    H   1.0     0.391635     0.135417     0.976811  Biso 1.000000     H
    H   1.0     0.891625     0.135425     0.976814  Biso 1.000000     H
    H   1.0     0.123394     0.264146     0.957551  Biso 1.000000     H
    H   1.0     0.623386     0.264148     0.957551  Biso 1.000000     H
    H   1.0     0.173058     0.182299     0.990081  Biso 1.000000     H
    H   1.0     0.673050     0.182299     0.990079  Biso 1.000000     H
    H   1.0     0.210510     0.424203     0.084651  Biso 1.000000     H
    H   1.0     0.710503     0.424201     0.084651  Biso 1.000000     H
    H   1.0     0.413952     0.465512     0.010695  Biso 1.000000     H
    H   1.0     0.913944     0.465509     0.010696  Biso 1.000000     H
    H   1.0     0.252431     0.278094     0.952023  Biso 1.000000     H
    H   1.0     0.752423     0.278093     0.952023  Biso 1.000000     H
    C   1.0     0.469060     0.354140     0.316114  Biso 1.000000     C
    C   1.0     0.969052     0.354141     0.316114  Biso 1.000000     C
    C   1.0     0.036584     0.374814     0.337126  Biso 1.000000     C
    C   1.0     0.536576     0.374814     0.337127  Biso 1.000000     C
    C   1.0     0.079314     0.449304     0.319446  Biso 1.000000     C
    C   1.0     0.579306     0.449304     0.319446  Biso 1.000000     C
    C   1.0     0.055215     0.499976     0.279766  Biso 1.000000     C
    C   1.0     0.555207     0.499976     0.279766  Biso 1.000000     C
    C   1.0     0.487461     0.479696     0.259835  Biso 1.000000     C
    C   1.0     0.987453     0.479697     0.259835  Biso 1.000000     C
    C   1.0     0.443359     0.407399     0.278319  Biso 1.000000     C
    C   1.0     0.943351     0.407399     0.278319  Biso 1.000000     C
    C   1.0     0.426496     0.272256     0.333288  Biso 1.000000     C
    C   1.0     0.926488     0.272256     0.333287  Biso 1.000000     C
    C   1.0     0.462097     0.533529     0.217650  Biso 1.000000     C
    C   1.0     0.962089     0.533529     0.217650  Biso 1.000000     C
    C   1.0     0.167350     0.428889     0.381268  Biso 1.000000     C
    C   1.0     0.667341     0.428890     0.381269  Biso 1.000000     C
    C   1.0     0.236081     0.473838     0.399299  Biso 1.000000     C
    C   1.0     0.736072     0.473839     0.399299  Biso 1.000000     C
    C   1.0     0.302893     0.445767     0.382827  Biso 1.000000     C
    C   1.0     0.802884     0.445762     0.382832  Biso 1.000000     C
    C   1.0     0.366508     0.487670     0.400042  Biso 1.000000     C
    C   1.0     0.866499     0.487664     0.400046  Biso 1.000000     C
    C   1.0     0.365574     0.559532     0.434072  Biso 1.000000     C
    C   1.0     0.865565     0.559532     0.434073  Biso 1.000000     C
    C   1.0     0.298355     0.587083     0.450551  Biso 1.000000     C
    C   1.0     0.798347     0.587090     0.450549  Biso 1.000000     C
    C   1.0     0.234903     0.544427     0.433705  Biso 1.000000     C
    C   1.0     0.734894     0.544435     0.433703  Biso 1.000000     C
    C   1.0     0.433115     0.604474     0.452119  Biso 1.000000     C
    C   1.0     0.933107     0.604474     0.452120  Biso 1.000000     C
    C   1.0    -0.005445     0.614499     0.422488  Biso 1.000000     C
    C   1.0     0.494546     0.614506     0.422486  Biso 1.000000     C
    C   1.0     0.057822     0.657251     0.439622  Biso 1.000000     C
    C   1.0     0.557813     0.657259     0.439620  Biso 1.000000     C
    C   1.0     0.062119     0.690846     0.487125  Biso 1.000000     C
    C   1.0     0.562111     0.690847     0.487125  Biso 1.000000     C
    C   1.0     0.001124     0.681824     0.516624  Biso 1.000000     C
    C   1.0     0.501118     0.681818     0.516625  Biso 1.000000     C
    C   1.0     0.437639     0.639761     0.499329  Biso 1.000000     C
    C   1.0     0.937629     0.639767     0.499329  Biso 1.000000     C
    C   1.0     0.131012     0.734086     0.506462  Biso 1.000000     C
    C   1.0     0.631004     0.734086     0.506462  Biso 1.000000     C
    C   1.0     0.223409     0.844612     0.480727  Biso 1.000000     C
    C   1.0     0.723401     0.844613     0.480728  Biso 1.000000     C
    C   1.0     0.246729     0.909151     0.445620  Biso 1.000000     C
    C   1.0     0.746720     0.909152     0.445620  Biso 1.000000     C
    C   1.0     0.315423     0.951240     0.448915  Biso 1.000000     C
    C   1.0     0.815415     0.951242     0.448916  Biso 1.000000     C
    C   1.0     0.360249     0.932198     0.488037  Biso 1.000000     C
    C   1.0     0.860240     0.932201     0.488038  Biso 1.000000     C
    C   1.0     0.335833     0.870765     0.523818  Biso 1.000000     C
    C   1.0     0.835824     0.870769     0.523819  Biso 1.000000     C
    C   1.0     0.267762     0.825741     0.520025  Biso 1.000000     C
    C   1.0     0.767754     0.825743     0.520026  Biso 1.000000     C
    C   1.0     0.342956     0.015589     0.410778  Biso 1.000000     C
    C   1.0     0.842947     0.015589     0.410778  Biso 1.000000     C
    C   1.0     0.382451     0.853047     0.566801  Biso 1.000000     C
    C   1.0     0.882442     0.853050     0.566802  Biso 1.000000     C
    C   1.0     0.031429     0.145730     0.816205  Biso 1.000000     C
    C   1.0     0.531420     0.145731     0.816204  Biso 1.000000     C
    C   1.0     0.464019     0.124929     0.837561  Biso 1.000000     C
    C   1.0     0.964012     0.124928     0.837563  Biso 1.000000     C
    C   1.0     0.421218     0.050529     0.820101  Biso 1.000000     C
    C   1.0     0.921211     0.050528     0.820104  Biso 1.000000     C
    C   1.0     0.445177     0.999969     0.780306  Biso 1.000000     C
    C   1.0     0.945169     0.999968     0.780309  Biso 1.000000     C
    C   1.0     0.012864     0.020348     0.760033  Biso 1.000000     C
    C   1.0     0.512856     0.020350     0.760031  Biso 1.000000     C
    C   1.0     0.057024     0.092620     0.778294  Biso 1.000000     C
    C   1.0     0.557018     0.092620     0.778293  Biso 1.000000     C
    C   1.0     0.073856     0.227664     0.833229  Biso 1.000000     C
    C   1.0     0.573848     0.227664     0.833229  Biso 1.000000     C
    C   1.0     0.038094     0.966525     0.717750  Biso 1.000000     C
    C   1.0     0.538086     0.966525     0.717749  Biso 1.000000     C
    C   1.0     0.333303     0.071351     0.882182  Biso 1.000000     C
    C   1.0     0.833296     0.071352     0.882185  Biso 1.000000     C
    C   1.0     0.264305     0.026813     0.900227  Biso 1.000000     C
    C   1.0     0.764298     0.026816     0.900230  Biso 1.000000     C
    C   1.0     0.197736     0.055534     0.883841  Biso 1.000000     C
    C   1.0     0.697729     0.055535     0.883843  Biso 1.000000     C
    C   1.0     0.133878     0.013612     0.900883  Biso 1.000000     C
    C   1.0     0.633871     0.013614     0.900885  Biso 1.000000     C
    C   1.0     0.134369     0.941079     0.934631  Biso 1.000000     C
    C   1.0     0.634361     0.941083     0.934634  Biso 1.000000     C
    C   1.0     0.201352     0.912938     0.951056  Biso 1.000000     C
    C   1.0     0.701344     0.912943     0.951060  Biso 1.000000     C
    C   1.0     0.265030     0.955664     0.934421  Biso 1.000000     C
    C   1.0     0.765022     0.955669     0.934425  Biso 1.000000     C
    C   1.0     0.066620     0.895979     0.952449  Biso 1.000000     C
    C   1.0     0.566611     0.895982     0.952452  Biso 1.000000     C
    C   1.0     0.505376     0.886719     0.922796  Biso 1.000000     C
    C   1.0     0.000000     0.886718     0.922795  Biso 1.000000     C
    C   1.0     0.441945     0.843757     0.939775  Biso 1.000000     C
    C   1.0     0.941935     0.843758     0.939774  Biso 1.000000     C
    C   1.0     0.437277     0.809359     0.987165  Biso 1.000000     C
    C   1.0     0.937269     0.809358     0.987164  Biso 1.000000     C
    C   1.0     0.498069     0.817628     0.016683  Biso 1.000000     C
    C   1.0     0.998062     0.817624     0.016681  Biso 1.000000     C
    C   1.0     0.061722     0.859814     0.999512  Biso 1.000000     C
    C   1.0     0.561713     0.859820     0.999515  Biso 1.000000     C
    C   1.0     0.368253     0.765853     0.006385  Biso 1.000000     C
    C   1.0     0.868245     0.765854     0.006384  Biso 1.000000     C
    C   1.0     0.276268     0.655410     0.980289  Biso 1.000000     C
    C   1.0     0.776260     0.655409     0.980290  Biso 1.000000     C
    C   1.0     0.253460     0.591227     0.945017  Biso 1.000000     C
    C   1.0     0.753453     0.591226     0.945017  Biso 1.000000     C
    C   1.0     0.184692     0.549211     0.948009  Biso 1.000000     C
    C   1.0     0.684684     0.549209     0.948010  Biso 1.000000     C
    C   1.0     0.139151     0.568142     0.986869  Biso 1.000000     C
    C   1.0     0.639144     0.568140     0.986870  Biso 1.000000     C
    C   1.0     0.162972     0.629345     0.022751  Biso 1.000000     C
    C   1.0     0.662964     0.629344     0.022751  Biso 1.000000     C
    C   1.0     0.231183     0.674220     0.019341  Biso 1.000000     C
    C   1.0     0.731175     0.674219     0.019341  Biso 1.000000     C
    C   1.0     0.157624     0.485130     0.909829  Biso 1.000000     C
    C   1.0     0.657617     0.485128     0.909830  Biso 1.000000     C
    C   1.0     0.115461     0.647006     0.065358  Biso 1.000000     C
    C   1.0     0.615453     0.647006     0.065358  Biso 1.000000     C
    C   1.0     0.030928     0.645839     0.683879  Biso 1.000000     C
    C   1.0     0.530921     0.645839     0.683879  Biso 1.000000     C
    C   1.0     0.463405     0.625164     0.662866  Biso 1.000000     C
    C   1.0     0.963398     0.625164     0.662865  Biso 1.000000     C
    C   1.0     0.420674     0.550676     0.680547  Biso 1.000000     C
    C   1.0     0.920667     0.550676     0.680547  Biso 1.000000     C
    C   1.0     0.444774     0.500004     0.720228  Biso 1.000000     C
    C   1.0     0.944766     0.500004     0.720227  Biso 1.000000     C
    C   1.0     0.012526     0.520285     0.740159  Biso 1.000000     C
    C   1.0     0.512519     0.520285     0.740159  Biso 1.000000     C
    C   1.0     0.056631     0.592578     0.721673  Biso 1.000000     C
    C   1.0     0.556623     0.592578     0.721673  Biso 1.000000     C
    C   1.0     0.073493     0.727723     0.666705  Biso 1.000000     C
    C   1.0     0.573485     0.727723     0.666705  Biso 1.000000     C
    C   1.0     0.037891     0.466451     0.782343  Biso 1.000000     C
    C   1.0     0.537883     0.466451     0.782343  Biso 1.000000     C
    C   1.0     0.332639     0.571085     0.618724  Biso 1.000000     C
    C   1.0     0.832632     0.571084     0.618723  Biso 1.000000     C
    C   1.0     0.263909     0.526131     0.600694  Biso 1.000000     C
    C   1.0     0.763902     0.526131     0.600693  Biso 1.000000     C
    C   1.0     0.197095     0.554204     0.617162  Biso 1.000000     C
    C   1.0     0.697089     0.554206     0.617160  Biso 1.000000     C
    C   1.0     0.133482     0.512298     0.599948  Biso 1.000000     C
    C   1.0     0.633475     0.512301     0.599946  Biso 1.000000     C
    C   1.0     0.134419     0.440430     0.565921  Biso 1.000000     C
    C   1.0     0.634411     0.440431     0.565920  Biso 1.000000     C
    C   1.0     0.201638     0.412876     0.549445  Biso 1.000000     C
    C   1.0     0.701630     0.412875     0.549445  Biso 1.000000     C
    C   1.0     0.265089     0.455536     0.566291  Biso 1.000000     C
    C   1.0     0.765082     0.455533     0.566291  Biso 1.000000     C
    C   1.0     0.066878     0.395486     0.547873  Biso 1.000000     C
    C   1.0     0.566870     0.395488     0.547873  Biso 1.000000     C
    C   1.0     0.505438     0.385459     0.577506  Biso 1.000000     C
    C   1.0     0.000000     0.385456     0.577506  Biso 1.000000     C
    C   1.0     0.442171     0.342708     0.560371  Biso 1.000000     C
    C   1.0     0.942164     0.342705     0.560371  Biso 1.000000     C
    C   1.0     0.437873     0.309120     0.512866  Biso 1.000000     C
    C   1.0     0.937866     0.309118     0.512866  Biso 1.000000     C
    C   1.0     0.498867     0.318146     0.483367  Biso 1.000000     C
    C   1.0     0.998860     0.318145     0.483367  Biso 1.000000     C
    C   1.0     0.062356     0.360199     0.500663  Biso 1.000000     C
    C   1.0     0.562347     0.360200     0.500663  Biso 1.000000     C
    C   1.0     0.368980     0.265883     0.493529  Biso 1.000000     C
    C   1.0     0.868973     0.265881     0.493529  Biso 1.000000     C
    C   1.0     0.276580     0.155360     0.519265  Biso 1.000000     C
    C   1.0     0.776572     0.155361     0.519265  Biso 1.000000     C
    C   1.0     0.253261     0.090821     0.554372  Biso 1.000000     C
    C   1.0     0.753253     0.090822     0.554373  Biso 1.000000     C
    C   1.0     0.184567     0.048731     0.551077  Biso 1.000000     C
    C   1.0     0.684559     0.048732     0.551077  Biso 1.000000     C
    C   1.0     0.139743     0.067770     0.511954  Biso 1.000000     C
    C   1.0     0.639734     0.067773     0.511955  Biso 1.000000     C
    C   1.0     0.164159     0.129203     0.476173  Biso 1.000000     C
    C   1.0     0.664150     0.129205     0.476173  Biso 1.000000     C
    C   1.0     0.232228     0.174229     0.479967  Biso 1.000000     C
    C   1.0     0.732220     0.174231     0.479967  Biso 1.000000     C
    C   1.0     0.157034     0.984386     0.589215  Biso 1.000000     C
    C   1.0     0.657026     0.984387     0.589215  Biso 1.000000     C
    C   1.0     0.117541     0.146923     0.433190  Biso 1.000000     C
    C   1.0     0.617532     0.146925     0.433191  Biso 1.000000     C
    C   1.0     0.468561     0.854250     0.183793  Biso 1.000000     C
    C   1.0     0.968553     0.854249     0.183792  Biso 1.000000     C
    C   1.0     0.035972     0.875050     0.162436  Biso 1.000000     C
    C   1.0     0.535965     0.875048     0.162438  Biso 1.000000     C
    C   1.0     0.078772     0.949450     0.179894  Biso 1.000000     C
    C   1.0     0.578765     0.949448     0.179897  Biso 1.000000     C
    C   1.0     0.054813     0.000011     0.219689  Biso 1.000000     C
    C   1.0     0.554805     0.000009     0.219692  Biso 1.000000     C
    C   1.0     0.487124     0.979632     0.239965  Biso 1.000000     C
    C   1.0     0.987117     0.979632     0.239963  Biso 1.000000     C
    C   1.0     0.442964     0.907360     0.221704  Biso 1.000000     C
    C   1.0     0.942956     0.907361     0.221703  Biso 1.000000     C
    C   1.0     0.426133     0.772317     0.166768  Biso 1.000000     C
    C   1.0     0.926125     0.772317     0.166767  Biso 1.000000     C
    C   1.0     0.461894     0.033456     0.282246  Biso 1.000000     C
    C   1.0     0.961887     0.033456     0.282245  Biso 1.000000     C
    C   1.0     0.166690     0.928621     0.117816  Biso 1.000000     C
    C   1.0     0.666683     0.928622     0.117820  Biso 1.000000     C
    C   1.0     0.235687     0.973158     0.099770  Biso 1.000000     C
    C   1.0     0.735680     0.973160     0.099774  Biso 1.000000     C
    C   1.0     0.302257     0.944440     0.116157  Biso 1.000000     C
    C   1.0     0.802250     0.944442     0.116160  Biso 1.000000     C
    C   1.0     0.366114     0.986362     0.099114  Biso 1.000000     C
    C   1.0     0.866107     0.986365     0.099116  Biso 1.000000     C
    C   1.0     0.365623     0.058891     0.065364  Biso 1.000000     C
    C   1.0     0.865615     0.058895     0.065367  Biso 1.000000     C
    C   1.0     0.298639     0.087028     0.048938  Biso 1.000000     C
    C   1.0     0.798630     0.087033     0.048942  Biso 1.000000     C
    C   1.0     0.234961     0.044302     0.065574  Biso 1.000000     C
    C   1.0     0.734953     0.044306     0.065578  Biso 1.000000     C
    C   1.0     0.433371     0.103993     0.047546  Biso 1.000000     C
    C   1.0     0.933363     0.103997     0.047548  Biso 1.000000     C
    C   1.0    -0.005383     0.113254     0.077202  Biso 1.000000     C
    C   1.0     0.494609     0.113253     0.077200  Biso 1.000000     C
    C   1.0     0.058049     0.156214     0.060222  Biso 1.000000     C
    C   1.0     0.558040     0.156215     0.060221  Biso 1.000000     C
    C   1.0     0.062714     0.190618     0.012833  Biso 1.000000     C
    C   1.0     0.562706     0.190617     0.012831  Biso 1.000000     C
    C   1.0     0.001919     0.182355     0.983317  Biso 1.000000     C
    C   1.0     0.501912     0.182351     0.983315  Biso 1.000000     C
    C   1.0     0.438269     0.140160     0.000484  Biso 1.000000     C
    C   1.0     0.938259     0.140165     0.000487  Biso 1.000000     C
    C   1.0     0.131738     0.234122     0.993612  Biso 1.000000     C
    C   1.0     0.631730     0.234122     0.993611  Biso 1.000000     C
    C   1.0     0.223718     0.344577     0.019704  Biso 1.000000     C
    C   1.0     0.723710     0.344576     0.019704  Biso 1.000000     C
    C   1.0     0.246523     0.408762     0.054976  Biso 1.000000     C
    C   1.0     0.746516     0.408760     0.054976  Biso 1.000000     C
    C   1.0     0.315292     0.450781     0.051984  Biso 1.000000     C
    C   1.0     0.815284     0.450780     0.051984  Biso 1.000000     C
    C   1.0     0.360829     0.431859     0.013121  Biso 1.000000     C
    C   1.0     0.860822     0.431857     0.013122  Biso 1.000000     C
    C   1.0     0.337012     0.370653     0.977241  Biso 1.000000     C
    C   1.0     0.837004     0.370651     0.977241  Biso 1.000000     C
    C   1.0     0.268803     0.325772     0.980652  Biso 1.000000     C
    C   1.0     0.768795     0.325771     0.980652  Biso 1.000000     C
    C   1.0     0.342359     0.514860     0.090164  Biso 1.000000     C
    C   1.0     0.842352     0.514859     0.090164  Biso 1.000000     C
    C   1.0     0.384524     0.352995     0.934635  Biso 1.000000     C
    C   1.0     0.884517     0.352994     0.934635  Biso 1.000000     C
    O   1.0     0.368904     0.246226     0.310274  Biso 1.000000     O
    O   1.0     0.868896     0.246226     0.310274  Biso 1.000000     O
    O   1.0     0.447152     0.227020     0.370193  Biso 1.000000     O
    O   1.0     0.947144     0.227019     0.370193  Biso 1.000000     O
    O   1.0     0.144500     0.476763     0.337763  Biso 1.000000     O
    O   1.0     0.644492     0.476763     0.337763  Biso 1.000000     O
    O   1.0     0.156530     0.804642     0.473090  Biso 1.000000     O
    O   1.0     0.656522     0.804643     0.473090  Biso 1.000000     O
    O   1.0     0.368733     0.789018     0.595738  Biso 1.000000     O
    O   1.0     0.868726     0.789019     0.595737  Biso 1.000000     O
    O   1.0     0.438072     0.911293     0.570143  Biso 1.000000     O
    O   1.0     0.938062     0.911298     0.570144  Biso 1.000000     O
    O   1.0     0.410400     0.030269     0.406635  Biso 1.000000     O
    O   1.0     0.910391     0.030271     0.406635  Biso 1.000000     O
    O   1.0     0.394065     0.538607     0.212836  Biso 1.000000     O
    O   1.0     0.894057     0.538607     0.212836  Biso 1.000000     O
    O   1.0     0.009685     0.569920     0.189337  Biso 1.000000     O
    O   1.0     0.509677     0.569919     0.189337  Biso 1.000000     O
    O   1.0     0.296771     0.053631     0.382836  Biso 1.000000     O
    O   1.0     0.796763     0.053631     0.382835  Biso 1.000000     O
    O   1.0     0.131501     0.253871     0.810126  Biso 1.000000     O
    O   1.0     0.631493     0.253871     0.810126  Biso 1.000000     O
    O   1.0     0.053028     0.272819     0.870115  Biso 1.000000     O
    O   1.0     0.553020     0.272819     0.870114  Biso 1.000000     O
    O   1.0     0.356102     0.023106     0.838789  Biso 1.000000     O
    O   1.0     0.856095     0.023104     0.838793  Biso 1.000000     O
    O   1.0     0.343335     0.695236     0.973023  Biso 1.000000     O
    O   1.0     0.843327     0.695235     0.973022  Biso 1.000000     O
    O   1.0     0.128428     0.711250     0.094199  Biso 1.000000     O
    O   1.0     0.628420     0.711249     0.094199  Biso 1.000000     O
    O   1.0     0.059919     0.588613     0.068692  Biso 1.000000     O
    O   1.0     0.559911     0.588611     0.068693  Biso 1.000000     O
    O   1.0     0.090310     0.468974     0.906225  Biso 1.000000     O
    O   1.0     0.590303     0.468973     0.906225  Biso 1.000000     O
    O   1.0     0.106153     0.961388     0.712701  Biso 1.000000     O
    O   1.0     0.606146     0.961387     0.712701  Biso 1.000000     O
    O   1.0     0.490509     0.930249     0.689608  Biso 1.000000     O
    O   1.0     0.990501     0.930250     0.689608  Biso 1.000000     O
    O   1.0     0.203936     0.448440     0.881369  Biso 1.000000     O
    O   1.0     0.703928     0.448438     0.881369  Biso 1.000000     O
    O   1.0     0.131084     0.753754     0.689720  Biso 1.000000     O
    O   1.0     0.631076     0.753753     0.689720  Biso 1.000000     O
    O   1.0     0.052837     0.772961     0.629801  Biso 1.000000     O
    O   1.0     0.552829     0.772960     0.629800  Biso 1.000000     O
    O   1.0     0.355487     0.523217     0.662231  Biso 1.000000     O
    O   1.0     0.855480     0.523217     0.662231  Biso 1.000000     O
    O   1.0     0.343458     0.195334     0.526904  Biso 1.000000     O
    O   1.0     0.843451     0.195333     0.526904  Biso 1.000000     O
    O   1.0     0.131255     0.210959     0.404257  Biso 1.000000     O
    O   1.0     0.631247     0.210960     0.404257  Biso 1.000000     O
    O   1.0     0.061923     0.088672     0.429846  Biso 1.000000     O
    O   1.0     0.561913     0.088676     0.429847  Biso 1.000000     O
    O   1.0     0.089590     0.969709     0.593360  Biso 1.000000     O
    O   1.0     0.589581     0.969711     0.593360  Biso 1.000000     O
    O   1.0     0.105924     0.461374     0.787158  Biso 1.000000     O
    O   1.0     0.605917     0.461374     0.787158  Biso 1.000000     O
    O   1.0     0.490305     0.430059     0.810656  Biso 1.000000     O
    O   1.0     0.990297     0.430059     0.810656  Biso 1.000000     O
    O   1.0     0.203218     0.946343     0.617158  Biso 1.000000     O
    O   1.0     0.703210     0.946341     0.617157  Biso 1.000000     O
    O   1.0     0.368487     0.746111     0.189870  Biso 1.000000     O
    O   1.0     0.868479     0.746111     0.189870  Biso 1.000000     O
    O   1.0     0.446961     0.727164     0.129882  Biso 1.000000     O
    O   1.0     0.946952     0.727163     0.129881  Biso 1.000000     O
    O   1.0     0.143889     0.976873     0.161207  Biso 1.000000     O
    O   1.0     0.643883     0.976871     0.161212  Biso 1.000000     O
    O   1.0     0.156653     0.304746     0.026972  Biso 1.000000     O
    O   1.0     0.656645     0.304745     0.026972  Biso 1.000000     O
    O   1.0     0.371567     0.288740     0.905798  Biso 1.000000     O
    O   1.0     0.871559     0.288740     0.905798  Biso 1.000000     O
    O   1.0     0.440057     0.411402     0.931295  Biso 1.000000     O
    O   1.0     0.940050     0.411400     0.931296  Biso 1.000000     O
    O   1.0     0.409674     0.531010     0.093770  Biso 1.000000     O
    O   1.0     0.909667     0.531009     0.093770  Biso 1.000000     O
    O   1.0     0.393835     0.038594     0.287294  Biso 1.000000     O
    O   1.0     0.893828     0.038594     0.287293  Biso 1.000000     O
    O   1.0     0.009480     0.069734     0.310386  Biso 1.000000     O
    O   1.0     0.509471     0.069735     0.310386  Biso 1.000000     O
    O   1.0     0.296049     0.551549     0.118625  Biso 1.000000     O
    O   1.0     0.796041     0.551548     0.118625  Biso 1.000000     O
   Zn   1.0     0.349411     0.120757     0.333687  Biso 1.000000    Zn
   Zn   1.0     0.849404     0.120757     0.333687  Biso 1.000000    Zn
   Zn   1.0     0.496751     0.105720     0.378924  Biso 1.000000    Zn
   Zn   1.0     0.996743     0.105719     0.378923  Biso 1.000000    Zn
   Zn   1.0     0.150674     0.379307     0.833481  Biso 1.000000    Zn
   Zn   1.0     0.650666     0.379307     0.833481  Biso 1.000000    Zn
   Zn   1.0     0.003330     0.394092     0.879059  Biso 1.000000    Zn
   Zn   1.0     0.503322     0.394092     0.879059  Biso 1.000000    Zn
   Zn   1.0     0.150577     0.879223     0.666308  Biso 1.000000    Zn
   Zn   1.0     0.650569     0.879223     0.666307  Biso 1.000000    Zn
   Zn   1.0     0.003238     0.894261     0.621071  Biso 1.000000    Zn
   Zn   1.0     0.503230     0.894260     0.621071  Biso 1.000000    Zn
   Zn   1.0     0.349314     0.620676     0.166514  Biso 1.000000    Zn
   Zn   1.0     0.849306     0.620675     0.166514  Biso 1.000000    Zn
   Zn   1.0     0.496657     0.605891     0.120936  Biso 1.000000    Zn
   Zn   1.0     0.996649     0.605891     0.120936  Biso 1.000000    Zn
