#======================================================================

# CRYSTAL DATA

#----------------------------------------------------------------------

data_VESTA_phase_1


_pd_phase_name                         MOF
_cell_length_a                         18.34300
_cell_length_b                         19.75700
_cell_length_c                         19.75700
_cell_angle_alpha                      90.00000
_cell_angle_beta                       90.00000
_cell_angle_gamma                      89.99900
_symmetry_space_group_name_H-M         "P 1"
_symmetry_Int_Tables_number            1

loop_
_symmetry_equiv_pos_as_xyz
   "x, y, z"

loop_
   _atom_site_label
   _atom_site_occupancy
   _atom_site_fract_x
   _atom_site_fract_y
   _atom_site_fract_z
   _atom_site_adp_type
   _atom_site_B_iso_or_equiv
   _atom_site_type_symbol
    H   1.0     0.331848     0.883891     0.006976  Biso 1.000000     H
    H   1.0     0.831842     0.883892     0.006976  Biso 1.000000     H
    H   1.0     0.378890     0.809530     0.031580  Biso 1.000000     H
    H   1.0     0.878885     0.809530     0.031580  Biso 1.000000     H
    H   1.0     0.236417     0.793179     0.037480  Biso 1.000000     H
    H   1.0     0.736410     0.793181     0.037480  Biso 1.000000     H
    H   1.0     0.216201     0.733110     0.973972  Biso 1.000000     H
    H   1.0     0.716197     0.733109     0.973974  Biso 1.000000     H
    H   1.0     0.222402     0.865609     0.929575  Biso 1.000000     H
    H   1.0     0.722396     0.865610     0.929574  Biso 1.000000     H
    H   1.0     0.298231     0.866535     0.873928  Biso 1.000000     H
    H   1.0     0.798225     0.866534     0.873927  Biso 1.000000     H
    H   1.0     0.456653     0.897253     0.972578  Biso 1.000000     H
    H   1.0     0.956647     0.897253     0.972578  Biso 1.000000     H
    H   1.0     0.404396     0.884623     0.898427  Biso 1.000000     H
    H   1.0     0.904391     0.884623     0.898427  Biso 1.000000     H
    H   1.0     0.054057     0.783623     0.852469  Biso 1.000000     H
    H   1.0     0.554049     0.783624     0.852469  Biso 1.000000     H
    H   1.0     0.040161     0.870070     0.867847  Biso 1.000000     H
    H   1.0     0.540154     0.870070     0.867848  Biso 1.000000     H
    H   1.0    -0.012718     0.775424     0.024436  Biso 1.000000     H
    H   1.0     0.487275     0.775425     0.024437  Biso 1.000000     H
    H   1.0     0.062977     0.816237     0.986962  Biso 1.000000     H
    H   1.0     0.562970     0.816237     0.986962  Biso 1.000000     H
    H   1.0     0.331863     0.116130     0.993046  Biso 1.000000     H
    H   1.0     0.831855     0.116130     0.993046  Biso 1.000000     H
    H   1.0     0.378902     0.190491     0.968441  Biso 1.000000     H
    H   1.0     0.878895     0.190491     0.968441  Biso 1.000000     H
    H   1.0     0.236429     0.206844     0.962541  Biso 1.000000     H
    H   1.0     0.736420     0.206841     0.962543  Biso 1.000000     H
    H   1.0     0.216199     0.266911     0.026051  Biso 1.000000     H
    H   1.0     0.716195     0.266913     0.026049  Biso 1.000000     H
    H   1.0     0.222407     0.134413     0.070448  Biso 1.000000     H
    H   1.0     0.722400     0.134414     0.070450  Biso 1.000000     H
    H   1.0     0.298236     0.133486     0.126093  Biso 1.000000     H
    H   1.0     0.798230     0.133486     0.126093  Biso 1.000000     H
    H   1.0     0.456658     0.102768     0.027443  Biso 1.000000     H
    H   1.0     0.956650     0.102768     0.027443  Biso 1.000000     H
    H   1.0     0.404401     0.115398     0.101594  Biso 1.000000     H
    H   1.0     0.904395     0.115397     0.101594  Biso 1.000000     H
    H   1.0     0.054062     0.216398     0.147547  Biso 1.000000     H
    H   1.0     0.554053     0.216397     0.147550  Biso 1.000000     H
    H   1.0     0.040162     0.129951     0.132176  Biso 1.000000     H
    H   1.0     0.540157     0.129951     0.132174  Biso 1.000000     H
    H   1.0    -0.012708     0.224598     0.975584  Biso 1.000000     H
    H   1.0     0.487286     0.224597     0.975584  Biso 1.000000     H
    H   1.0     0.062978     0.183782     0.013057  Biso 1.000000     H
    H   1.0     0.562972     0.183783     0.013058  Biso 1.000000     H
    H   1.0     0.331855     0.993046     0.883891  Biso 1.000000     H
    H   1.0     0.831846     0.993046     0.883892  Biso 1.000000     H
    H   1.0     0.378895     0.968441     0.809531  Biso 1.000000     H
    H   1.0     0.878888     0.968441     0.809530  Biso 1.000000     H
    H   1.0     0.236424     0.962540     0.793177  Biso 1.000000     H
    H   1.0     0.736413     0.962543     0.793183  Biso 1.000000     H
    H   1.0     0.216202     0.026053     0.733114  Biso 1.000000     H
    H   1.0     0.716204     0.026047     0.733108  Biso 1.000000     H
    H   1.0     0.222411     0.070448     0.865609  Biso 1.000000     H
    H   1.0     0.722405     0.070449     0.865609  Biso 1.000000     H
    H   1.0     0.298240     0.126094     0.866534  Biso 1.000000     H
    H   1.0     0.798232     0.126094     0.866534  Biso 1.000000     H
    H   1.0     0.456663     0.027444     0.897253  Biso 1.000000     H
    H   1.0     0.956654     0.027443     0.897253  Biso 1.000000     H
    H   1.0     0.404404     0.101595     0.884622  Biso 1.000000     H
    H   1.0     0.904398     0.101594     0.884624  Biso 1.000000     H
    H   1.0     0.054068     0.147545     0.783622  Biso 1.000000     H
    H   1.0     0.554053     0.147553     0.783622  Biso 1.000000     H
    H   1.0     0.040164     0.132178     0.870069  Biso 1.000000     H
    H   1.0     0.540164     0.132172     0.870069  Biso 1.000000     H
    H   1.0    -0.012715     0.975583     0.775425  Biso 1.000000     H
    H   1.0     0.487279     0.975584     0.775424  Biso 1.000000     H
    H   1.0     0.062985     0.013058     0.816238  Biso 1.000000     H
    H   1.0     0.562977     0.013058     0.816237  Biso 1.000000     H
    H   1.0     0.331857     0.006975     0.116130  Biso 1.000000     H
    H   1.0     0.831851     0.006976     0.116129  Biso 1.000000     H
    H   1.0     0.378897     0.031580     0.190490  Biso 1.000000     H
    H   1.0     0.878892     0.031580     0.190490  Biso 1.000000     H
    H   1.0     0.236425     0.037480     0.206844  Biso 1.000000     H
    H   1.0     0.736417     0.037480     0.206842  Biso 1.000000     H
    H   1.0     0.216193     0.973970     0.266912  Biso 1.000000     H
    H   1.0     0.716190     0.973973     0.266913  Biso 1.000000     H
    H   1.0     0.222399     0.929572     0.134413  Biso 1.000000     H
    H   1.0     0.722391     0.929575     0.134412  Biso 1.000000     H
    H   1.0     0.298230     0.873928     0.133486  Biso 1.000000     H
    H   1.0     0.798222     0.873928     0.133486  Biso 1.000000     H
    H   1.0     0.456649     0.972579     0.102768  Biso 1.000000     H
    H   1.0     0.956643     0.972577     0.102768  Biso 1.000000     H
    H   1.0     0.404394     0.898427     0.115398  Biso 1.000000     H
    H   1.0     0.904388     0.898427     0.115398  Biso 1.000000     H
    H   1.0     0.054052     0.852468     0.216397  Biso 1.000000     H
    H   1.0     0.554047     0.852469     0.216397  Biso 1.000000     H
    H   1.0     0.040158     0.867847     0.129951  Biso 1.000000     H
    H   1.0     0.540150     0.867846     0.129951  Biso 1.000000     H
    H   1.0    -0.012711     0.024437     0.224595  Biso 1.000000     H
    H   1.0     0.487282     0.024437     0.224597  Biso 1.000000     H
    H   1.0     0.062971     0.986962     0.183783  Biso 1.000000     H
    H   1.0     0.562964     0.986963     0.183782  Biso 1.000000     H
    H   1.0     0.081859     0.383881     0.493035  Biso 1.000000     H
    H   1.0     0.581853     0.383881     0.493036  Biso 1.000000     H
    H   1.0     0.128902     0.309520     0.468431  Biso 1.000000     H
    H   1.0     0.628895     0.309520     0.468431  Biso 1.000000     H
    H   1.0     0.486421     0.293170     0.462532  Biso 1.000000     H
    H   1.0     0.986415     0.293170     0.462531  Biso 1.000000     H
    H   1.0     0.466200     0.233100     0.526060  Biso 1.000000     H
    H   1.0     0.966194     0.233100     0.526059  Biso 1.000000     H
    H   1.0     0.472403     0.365599     0.570459  Biso 1.000000     H
    H   1.0     0.972396     0.365598     0.570459  Biso 1.000000     H
    H   1.0     0.048239     0.366525     0.626104  Biso 1.000000     H
    H   1.0     0.548232     0.366524     0.626104  Biso 1.000000     H
    H   1.0     0.206659     0.397243     0.527454  Biso 1.000000     H
    H   1.0     0.706652     0.397242     0.527453  Biso 1.000000     H
    H   1.0     0.154403     0.384613     0.601604  Biso 1.000000     H
    H   1.0     0.654396     0.384612     0.601605  Biso 1.000000     H
    H   1.0     0.304058     0.283613     0.647560  Biso 1.000000     H
    H   1.0     0.804053     0.283611     0.647559  Biso 1.000000     H
    H   1.0     0.290160     0.370059     0.632184  Biso 1.000000     H
    H   1.0     0.790153     0.370058     0.632186  Biso 1.000000     H
    H   1.0     0.237286     0.275415     0.475573  Biso 1.000000     H
    H   1.0     0.737280     0.275414     0.475574  Biso 1.000000     H
    H   1.0     0.312976     0.316226     0.513069  Biso 1.000000     H
    H   1.0     0.812970     0.316227     0.513068  Biso 1.000000     H
    H   1.0     0.081856     0.616139     0.506986  Biso 1.000000     H
    H   1.0     0.581852     0.616140     0.506986  Biso 1.000000     H
    H   1.0     0.128897     0.690502     0.531590  Biso 1.000000     H
    H   1.0     0.628891     0.690501     0.531590  Biso 1.000000     H
    H   1.0     0.486418     0.706854     0.537490  Biso 1.000000     H
    H   1.0     0.986405     0.706848     0.537486  Biso 1.000000     H
    H   1.0     0.466193     0.766922     0.473961  Biso 1.000000     H
    H   1.0     0.966197     0.766930     0.473967  Biso 1.000000     H
    H   1.0     0.472401     0.634423     0.429563  Biso 1.000000     H
    H   1.0     0.972393     0.634424     0.429563  Biso 1.000000     H
    H   1.0     0.048234     0.633497     0.373918  Biso 1.000000     H
    H   1.0     0.548231     0.633497     0.373918  Biso 1.000000     H
    H   1.0     0.206656     0.602778     0.472568  Biso 1.000000     H
    H   1.0     0.706652     0.602779     0.472568  Biso 1.000000     H
    H   1.0     0.154402     0.615407     0.398418  Biso 1.000000     H
    H   1.0     0.654395     0.615408     0.398417  Biso 1.000000     H
    H   1.0     0.304061     0.716407     0.352467  Biso 1.000000     H
    H   1.0     0.804045     0.716408     0.352458  Biso 1.000000     H
    H   1.0     0.290151     0.629961     0.367830  Biso 1.000000     H
    H   1.0     0.790152     0.629962     0.367837  Biso 1.000000     H
    H   1.0     0.237280     0.724605     0.524449  Biso 1.000000     H
    H   1.0     0.737276     0.724608     0.524446  Biso 1.000000     H
    H   1.0     0.312973     0.683792     0.486953  Biso 1.000000     H
    H   1.0     0.812966     0.683792     0.486953  Biso 1.000000     H
    H   1.0     0.081858     0.493035     0.616140  Biso 1.000000     H
    H   1.0     0.581853     0.493036     0.616140  Biso 1.000000     H
    H   1.0     0.128901     0.468431     0.690501  Biso 1.000000     H
    H   1.0     0.628895     0.468431     0.690501  Biso 1.000000     H
    H   1.0     0.486420     0.462533     0.706851  Biso 1.000000     H
    H   1.0     0.986411     0.462534     0.706847  Biso 1.000000     H
    H   1.0     0.466200     0.526059     0.766924  Biso 1.000000     H
    H   1.0     0.966200     0.526054     0.766928  Biso 1.000000     H
    H   1.0     0.472402     0.570459     0.634424  Biso 1.000000     H
    H   1.0     0.972394     0.570460     0.634424  Biso 1.000000     H
    H   1.0     0.048235     0.626103     0.633495  Biso 1.000000     H
    H   1.0     0.548230     0.626103     0.633497  Biso 1.000000     H
    H   1.0     0.206657     0.527453     0.602777  Biso 1.000000     H
    H   1.0     0.706652     0.527453     0.602778  Biso 1.000000     H
    H   1.0     0.154402     0.601604     0.615407  Biso 1.000000     H
    H   1.0     0.654395     0.601605     0.615408  Biso 1.000000     H
    H   1.0     0.304061     0.647554     0.716408  Biso 1.000000     H
    H   1.0     0.804050     0.647558     0.716409  Biso 1.000000     H
    H   1.0     0.290154     0.632189     0.629962  Biso 1.000000     H
    H   1.0     0.790151     0.632186     0.629963  Biso 1.000000     H
    H   1.0     0.237284     0.475572     0.724608  Biso 1.000000     H
    H   1.0     0.737279     0.475574     0.724609  Biso 1.000000     H
    H   1.0     0.312975     0.513066     0.683792  Biso 1.000000     H
    H   1.0     0.812969     0.513067     0.683792  Biso 1.000000     H
    H   1.0     0.081857     0.506986     0.383881  Biso 1.000000     H
    H   1.0     0.581851     0.506986     0.383881  Biso 1.000000     H
    H   1.0     0.128898     0.531590     0.309520  Biso 1.000000     H
    H   1.0     0.628891     0.531590     0.309520  Biso 1.000000     H
    H   1.0     0.486418     0.537490     0.293168  Biso 1.000000     H
    H   1.0     0.986411     0.537490     0.293168  Biso 1.000000     H
    H   1.0     0.466195     0.473961     0.233100  Biso 1.000000     H
    H   1.0     0.966189     0.473961     0.233100  Biso 1.000000     H
    H   1.0     0.472402     0.429563     0.365599  Biso 1.000000     H
    H   1.0     0.972395     0.429563     0.365599  Biso 1.000000     H
    H   1.0     0.048238     0.373917     0.366524  Biso 1.000000     H
    H   1.0     0.548232     0.373916     0.366523  Biso 1.000000     H
    H   1.0     0.206658     0.472567     0.397242  Biso 1.000000     H
    H   1.0     0.706651     0.472568     0.397242  Biso 1.000000     H
    H   1.0     0.154403     0.398417     0.384613  Biso 1.000000     H
    H   1.0     0.654397     0.398417     0.384613  Biso 1.000000     H
    H   1.0     0.304054     0.352458     0.283613  Biso 1.000000     H
    H   1.0     0.804050     0.352459     0.283612  Biso 1.000000     H
    H   1.0     0.290160     0.367837     0.370059  Biso 1.000000     H
    H   1.0     0.790152     0.367835     0.370059  Biso 1.000000     H
    H   1.0     0.237282     0.524448     0.275415  Biso 1.000000     H
    H   1.0     0.737276     0.524447     0.275415  Biso 1.000000     H
    H   1.0     0.312973     0.486951     0.316226  Biso 1.000000     H
    H   1.0     0.812967     0.486951     0.316227  Biso 1.000000     H
    C   1.0     0.359386     0.837834     0.987291  Biso 1.000000     C
    C   1.0     0.859380     0.837835     0.987291  Biso 1.000000     C
    C   1.0     0.261507     0.758114     0.000000  Biso 1.000000     C
    C   1.0     0.761502     0.758116     0.000000  Biso 1.000000     C
    C   1.0     0.302231     0.702893     0.039499  Biso 1.000000     C
    C   1.0     0.802225     0.702895     0.039500  Biso 1.000000     C
    C   1.0     0.262585     0.832902     0.903290  Biso 1.000000     C
    C   1.0     0.762579     0.832902     0.903290  Biso 1.000000     C
    C   1.0     0.221433     0.790411     0.850580  Biso 1.000000     C
    C   1.0     0.721426     0.790410     0.850581  Biso 1.000000     C
    C   1.0     0.424155     0.859191     0.944245  Biso 1.000000     C
    C   1.0     0.924149     0.859191     0.944245  Biso 1.000000     C
    C   1.0     0.011212     0.821225     0.861672  Biso 1.000000     C
    C   1.0     0.511205     0.821226     0.861672  Biso 1.000000     C
    C   1.0     0.465354     0.824672     0.796987  Biso 1.000000     C
    C   1.0     0.965348     0.824671     0.796987  Biso 1.000000     C
    C   1.0     0.018616     0.779316     0.977210  Biso 1.000000     C
    C   1.0     0.518609     0.779316     0.977210  Biso 1.000000     C
    C   1.0     0.053920     0.709370     0.967045  Biso 1.000000     C
    C   1.0     0.553913     0.709370     0.967045  Biso 1.000000     C
    C   1.0     0.359390     0.162186     0.012731  Biso 1.000000     C
    C   1.0     0.859385     0.162185     0.012730  Biso 1.000000     C
    C   1.0     0.261506     0.241908    -0.000388  Biso 1.000000     C
    C   1.0     0.761501     0.241906    -0.000389  Biso 1.000000     C
    C   1.0     0.302238     0.297129     0.960524  Biso 1.000000     C
    C   1.0     0.802233     0.297126     0.960522  Biso 1.000000     C
    C   1.0     0.262589     0.167120     0.096732  Biso 1.000000     C
    C   1.0     0.762583     0.167120     0.096733  Biso 1.000000     C
    C   1.0     0.221434     0.209611     0.149441  Biso 1.000000     C
    C   1.0     0.721427     0.209611     0.149441  Biso 1.000000     C
    C   1.0     0.424160     0.140830     0.055777  Biso 1.000000     C
    C   1.0     0.924155     0.140831     0.055777  Biso 1.000000     C
    C   1.0     0.011215     0.178798     0.138350  Biso 1.000000     C
    C   1.0     0.511208     0.178796     0.138349  Biso 1.000000     C
    C   1.0     0.465357     0.175351     0.203035  Biso 1.000000     C
    C   1.0     0.965351     0.175352     0.203035  Biso 1.000000     C
    C   1.0     0.018616     0.220704     0.022810  Biso 1.000000     C
    C   1.0     0.518610     0.220705     0.022811  Biso 1.000000     C
    C   1.0     0.053917     0.290650     0.032976  Biso 1.000000     C
    C   1.0     0.553912     0.290650     0.032976  Biso 1.000000     C
    C   1.0     0.359395     0.012731     0.837834  Biso 1.000000     C
    C   1.0     0.859391     0.012730     0.837836  Biso 1.000000     C
    C   1.0     0.261511    -0.000388     0.758112  Biso 1.000000     C
    C   1.0     0.761509    -0.000390     0.758118  Biso 1.000000     C
    C   1.0     0.302231     0.960524     0.702891  Biso 1.000000     C
    C   1.0     0.802226     0.960521     0.702896  Biso 1.000000     C
    C   1.0     0.262594     0.096732     0.832902  Biso 1.000000     C
    C   1.0     0.762586     0.096734     0.832901  Biso 1.000000     C
    C   1.0     0.221439     0.149441     0.790411  Biso 1.000000     C
    C   1.0     0.721430     0.149442     0.790410  Biso 1.000000     C
    C   1.0     0.424163     0.055777     0.859191  Biso 1.000000     C
    C   1.0     0.924159     0.055778     0.859190  Biso 1.000000     C
    C   1.0     0.011219     0.138350     0.821221  Biso 1.000000     C
    C   1.0     0.511211     0.138348     0.821226  Biso 1.000000     C
    C   1.0     0.465359     0.203034     0.824673  Biso 1.000000     C
    C   1.0     0.965354     0.203036     0.824666  Biso 1.000000     C
    C   1.0     0.018622     0.022810     0.779317  Biso 1.000000     C
    C   1.0     0.518616     0.022812     0.779315  Biso 1.000000     C
    C   1.0     0.053923     0.032976     0.709370  Biso 1.000000     C
    C   1.0     0.553920     0.032977     0.709370  Biso 1.000000     C
    C   1.0     0.359382     0.987290     0.162186  Biso 1.000000     C
    C   1.0     0.859374     0.987290     0.162186  Biso 1.000000     C
    C   1.0     0.261499     0.000000     0.241908  Biso 1.000000     C
    C   1.0     0.761495     0.000000     0.241906  Biso 1.000000     C
    C   1.0     0.302237     0.039498     0.297128  Biso 1.000000     C
    C   1.0     0.802232     0.039500     0.297126  Biso 1.000000     C
    C   1.0     0.262583     0.903289     0.167120  Biso 1.000000     C
    C   1.0     0.762574     0.903290     0.167119  Biso 1.000000     C
    C   1.0     0.221429     0.850580     0.209611  Biso 1.000000     C
    C   1.0     0.721423     0.850580     0.209611  Biso 1.000000     C
    C   1.0     0.424152     0.944244     0.140830  Biso 1.000000     C
    C   1.0     0.924144     0.944245     0.140830  Biso 1.000000     C
    C   1.0     0.011208     0.861672     0.178794  Biso 1.000000     C
    C   1.0     0.511202     0.861672     0.178795  Biso 1.000000     C
    C   1.0     0.465352     0.796986     0.175350  Biso 1.000000     C
    C   1.0     0.965344     0.796986     0.175349  Biso 1.000000     C
    C   1.0     0.018610     0.977210     0.220705  Biso 1.000000     C
    C   1.0     0.518603     0.977210     0.220705  Biso 1.000000     C
    C   1.0     0.053913     0.967045     0.290651  Biso 1.000000     C
    C   1.0     0.553907     0.967044     0.290650  Biso 1.000000     C
    C   1.0     0.109393     0.337825     0.512741  Biso 1.000000     C
    C   1.0     0.609388     0.337825     0.512741  Biso 1.000000     C
    C   1.0     0.011513     0.258105     0.499621  Biso 1.000000     C
    C   1.0     0.511506     0.258104     0.499622  Biso 1.000000     C
    C   1.0     0.052241     0.202884     0.460512  Biso 1.000000     C
    C   1.0     0.552234     0.202884     0.460512  Biso 1.000000     C
    C   1.0     0.012593     0.332891     0.596743  Biso 1.000000     C
    C   1.0     0.512586     0.332891     0.596743  Biso 1.000000     C
    C   1.0     0.471432     0.290400     0.649451  Biso 1.000000     C
    C   1.0     0.971426     0.290400     0.649451  Biso 1.000000     C
    C   1.0     0.174162     0.359180     0.555787  Biso 1.000000     C
    C   1.0     0.674157     0.359180     0.555788  Biso 1.000000     C
    C   1.0     0.261212     0.321214     0.638359  Biso 1.000000     C
    C   1.0     0.761206     0.321213     0.638360  Biso 1.000000     C
    C   1.0     0.215361     0.324659     0.703045  Biso 1.000000     C
    C   1.0     0.715355     0.324659     0.703045  Biso 1.000000     C
    C   1.0     0.268615     0.279306     0.522820  Biso 1.000000     C
    C   1.0     0.768609     0.279306     0.522821  Biso 1.000000     C
    C   1.0     0.303918     0.209359     0.532986  Biso 1.000000     C
    C   1.0     0.803912     0.209360     0.532986  Biso 1.000000     C
    C   1.0     0.109392     0.662194     0.487282  Biso 1.000000     C
    C   1.0     0.609385     0.662196     0.487280  Biso 1.000000     C
    C   1.0     0.011512     0.741913     0.500402  Biso 1.000000     C
    C   1.0     0.511500     0.741918     0.500399  Biso 1.000000     C
    C   1.0     0.052238     0.797133     0.539513  Biso 1.000000     C
    C   1.0     0.552228     0.797138     0.539508  Biso 1.000000     C
    C   1.0     0.012587     0.667131     0.403278  Biso 1.000000     C
    C   1.0     0.512584     0.667130     0.403279  Biso 1.000000     C
    C   1.0     0.471428     0.709621     0.350571  Biso 1.000000     C
    C   1.0     0.971419     0.709622     0.350569  Biso 1.000000     C
    C   1.0     0.174161     0.640842     0.444233  Biso 1.000000     C
    C   1.0     0.674154     0.640841     0.444234  Biso 1.000000     C
    C   1.0     0.261209     0.678811     0.361660  Biso 1.000000     C
    C   1.0     0.761201     0.678806     0.361661  Biso 1.000000     C
    C   1.0     0.215358     0.675367     0.296974  Biso 1.000000     C
    C   1.0     0.715350     0.675359     0.296976  Biso 1.000000     C
    C   1.0     0.268609     0.720713     0.477202  Biso 1.000000     C
    C   1.0     0.768605     0.720715     0.477199  Biso 1.000000     C
    C   1.0     0.303909     0.790660     0.467035  Biso 1.000000     C
    C   1.0     0.803907     0.790660     0.467034  Biso 1.000000     C
    C   1.0     0.109396     0.512740     0.662194  Biso 1.000000     C
    C   1.0     0.609389     0.512741     0.662195  Biso 1.000000     C
    C   1.0     0.011515     0.499619     0.741912  Biso 1.000000     C
    C   1.0     0.511506     0.499621     0.741916  Biso 1.000000     C
    C   1.0     0.052242     0.460509     0.797133  Biso 1.000000     C
    C   1.0     0.552234     0.460512     0.797137  Biso 1.000000     C
    C   1.0     0.012590     0.596744     0.667131  Biso 1.000000     C
    C   1.0     0.512584     0.596743     0.667131  Biso 1.000000     C
    C   1.0     0.471429     0.649452     0.709621  Biso 1.000000     C
    C   1.0     0.971421     0.649453     0.709622  Biso 1.000000     C
    C   1.0     0.174164     0.555788     0.640842  Biso 1.000000     C
    C   1.0     0.674158     0.555789     0.640842  Biso 1.000000     C
    C   1.0     0.261211     0.638360     0.678810  Biso 1.000000     C
    C   1.0     0.761204     0.638360     0.678809  Biso 1.000000     C
    C   1.0     0.215359     0.703046     0.675365  Biso 1.000000     C
    C   1.0     0.715352     0.703045     0.675362  Biso 1.000000     C
    C   1.0     0.268613     0.522819     0.720714  Biso 1.000000     C
    C   1.0     0.768608     0.522820     0.720715  Biso 1.000000     C
    C   1.0     0.303915     0.532986     0.790660  Biso 1.000000     C
    C   1.0     0.803910     0.532987     0.790661  Biso 1.000000     C
    C   1.0     0.109389     0.487280     0.337824  Biso 1.000000     C
    C   1.0     0.609383     0.487280     0.337824  Biso 1.000000     C
    C   1.0     0.011508     0.500400     0.258103  Biso 1.000000     C
    C   1.0     0.511502     0.500399     0.258103  Biso 1.000000     C
    C   1.0     0.052237     0.539509     0.202884  Biso 1.000000     C
    C   1.0     0.552229     0.539508     0.202883  Biso 1.000000     C
    C   1.0     0.012591     0.403279     0.332891  Biso 1.000000     C
    C   1.0     0.512584     0.403279     0.332891  Biso 1.000000     C
    C   1.0     0.471430     0.350571     0.290400  Biso 1.000000     C
    C   1.0     0.971424     0.350570     0.290400  Biso 1.000000     C
    C   1.0     0.174159     0.444235     0.359181  Biso 1.000000     C
    C   1.0     0.674154     0.444235     0.359181  Biso 1.000000     C
    C   1.0     0.261210     0.361661     0.321216  Biso 1.000000     C
    C   1.0     0.761204     0.361661     0.321214  Biso 1.000000     C
    C   1.0     0.215360     0.296976     0.324661  Biso 1.000000     C
    C   1.0     0.715354     0.296976     0.324659  Biso 1.000000     C
    C   1.0     0.268611     0.477200     0.279305  Biso 1.000000     C
    C   1.0     0.768605     0.477199     0.279306  Biso 1.000000     C
    C   1.0     0.303914     0.467035     0.209360  Biso 1.000000     C
    C   1.0     0.803908     0.467035     0.209360  Biso 1.000000     C
    N   1.0     0.307255     0.794042     0.951152  Biso 1.000000     N
    N   1.0     0.807250     0.794043     0.951152  Biso 1.000000     N
    N   1.0     0.470130     0.802068     0.922413  Biso 1.000000     N
    N   1.0     0.970123     0.802068     0.922412  Biso 1.000000     N
    N   1.0     0.307258     0.205978     0.048868  Biso 1.000000     N
    N   1.0     0.807252     0.205976     0.048868  Biso 1.000000     N
    N   1.0     0.470132     0.197953     0.077609  Biso 1.000000     N
    N   1.0     0.970126     0.197955     0.077609  Biso 1.000000     N
    N   1.0     0.307262     0.048869     0.794041  Biso 1.000000     N
    N   1.0     0.807257     0.048868     0.794046  Biso 1.000000     N
    N   1.0     0.470136     0.077608     0.802068  Biso 1.000000     N
    N   1.0     0.970131     0.077610     0.802065  Biso 1.000000     N
    N   1.0     0.307251     0.951152     0.205978  Biso 1.000000     N
    N   1.0     0.807244     0.951151     0.205978  Biso 1.000000     N
    N   1.0     0.470125     0.922412     0.197954  Biso 1.000000     N
    N   1.0     0.970119     0.922412     0.197952  Biso 1.000000     N
    N   1.0     0.057263     0.294033     0.548880  Biso 1.000000     N
    N   1.0     0.557256     0.294033     0.548879  Biso 1.000000     N
    N   1.0     0.220136     0.302057     0.577619  Biso 1.000000     N
    N   1.0     0.720130     0.302055     0.577619  Biso 1.000000     N
    N   1.0     0.057259     0.705984     0.451143  Biso 1.000000     N
    N   1.0     0.557252     0.705989     0.451142  Biso 1.000000     N
    N   1.0     0.220133     0.697966     0.422401  Biso 1.000000     N
    N   1.0     0.720126     0.697964     0.422402  Biso 1.000000     N
    N   1.0     0.057262     0.548878     0.705984  Biso 1.000000     N
    N   1.0     0.557255     0.548878     0.705986  Biso 1.000000     N
    N   1.0     0.220135     0.577620     0.697968  Biso 1.000000     N
    N   1.0     0.720128     0.577620     0.697967  Biso 1.000000     N
    N   1.0     0.057259     0.451141     0.294031  Biso 1.000000     N
    N   1.0     0.557253     0.451141     0.294032  Biso 1.000000     N
    N   1.0     0.220134     0.422402     0.302059  Biso 1.000000     N
    N   1.0     0.720128     0.422402     0.302058  Biso 1.000000     N
    O   1.0     0.361933     0.679894     0.016908  Biso 1.000000     O
    O   1.0     0.861924     0.679892     0.016906  Biso 1.000000     O
    O   1.0     0.272138     0.683127     0.094462  Biso 1.000000     O
    O   1.0     0.772131     0.683125     0.094461  Biso 1.000000     O
    O   1.0     0.234517     0.726942     0.847766  Biso 1.000000     O
    O   1.0     0.734512     0.726942     0.847766  Biso 1.000000     O
    O   1.0     0.177338     0.822609     0.813509  Biso 1.000000     O
    O   1.0     0.677333     0.822610     0.813509  Biso 1.000000     O
    O   1.0     0.400130     0.802735     0.797141  Biso 1.000000     O
    O   1.0     0.900124     0.802737     0.797141  Biso 1.000000     O
    O   1.0     0.496516     0.849492     0.744899  Biso 1.000000     O
    O   1.0     0.996510     0.849492     0.744899  Biso 1.000000     O
    O   1.0     0.100080     0.691854     0.011137  Biso 1.000000     O
    O   1.0     0.600073     0.691854     0.011137  Biso 1.000000     O
    O   1.0     0.034838     0.674574     0.915428  Biso 1.000000     O
    O   1.0     0.534831     0.674574     0.915427  Biso 1.000000     O
    O   1.0     0.361941     0.320124     0.983111  Biso 1.000000     O
    O   1.0     0.861932     0.320127     0.983114  Biso 1.000000     O
    O   1.0     0.272145     0.316892     0.905559  Biso 1.000000     O
    O   1.0     0.772138     0.316895     0.905560  Biso 1.000000     O
    O   1.0     0.234518     0.273079     0.152255  Biso 1.000000     O
    O   1.0     0.734512     0.273079     0.152254  Biso 1.000000     O
    O   1.0     0.177340     0.177413     0.186511  Biso 1.000000     O
    O   1.0     0.677332     0.177413     0.186511  Biso 1.000000     O
    O   1.0     0.400132     0.197283     0.202879  Biso 1.000000     O
    O   1.0     0.900124     0.197280     0.202879  Biso 1.000000     O
    O   1.0     0.496520     0.150526     0.255121  Biso 1.000000     O
    O   1.0     0.996512     0.150523     0.255120  Biso 1.000000     O
    O   1.0     0.100088     0.308166     0.988885  Biso 1.000000     O
    O   1.0     0.600082     0.308166     0.988884  Biso 1.000000     O
    O   1.0     0.034837     0.325446     0.084594  Biso 1.000000     O
    O   1.0     0.534830     0.325446     0.084594  Biso 1.000000     O
    O   1.0     0.361937     0.983109     0.679899  Biso 1.000000     O
    O   1.0     0.861923     0.983116     0.679892  Biso 1.000000     O
    O   1.0     0.272140     0.905558     0.683131  Biso 1.000000     O
    O   1.0     0.772131     0.905561     0.683125  Biso 1.000000     O
    O   1.0     0.234521     0.152255     0.726942  Biso 1.000000     O
    O   1.0     0.734517     0.152254     0.726942  Biso 1.000000     O
    O   1.0     0.177342     0.186511     0.822608  Biso 1.000000     O
    O   1.0     0.677335     0.186512     0.822609  Biso 1.000000     O
    O   1.0     0.400137     0.202880     0.802734  Biso 1.000000     O
    O   1.0     0.900125     0.202879     0.802743  Biso 1.000000     O
    O   1.0     0.496523     0.255123     0.849489  Biso 1.000000     O
    O   1.0     0.996513     0.255120     0.849500  Biso 1.000000     O
    O   1.0     0.100082     0.988885     0.691855  Biso 1.000000     O
    O   1.0     0.600074     0.988883     0.691853  Biso 1.000000     O
    O   1.0     0.034844     0.084595     0.674575  Biso 1.000000     O
    O   1.0     0.534834     0.084593     0.674574  Biso 1.000000     O
    O   1.0     0.361942     0.016909     0.320123  Biso 1.000000     O
    O   1.0     0.861931     0.016906     0.320128  Biso 1.000000     O
    O   1.0     0.272144     0.094463     0.316892  Biso 1.000000     O
    O   1.0     0.772137     0.094462     0.316895  Biso 1.000000     O
    O   1.0     0.234514     0.847767     0.273079  Biso 1.000000     O
    O   1.0     0.734507     0.847766     0.273079  Biso 1.000000     O
    O   1.0     0.177334     0.813510     0.177413  Biso 1.000000     O
    O   1.0     0.677330     0.813509     0.177412  Biso 1.000000     O
    O   1.0     0.400127     0.797142     0.197284  Biso 1.000000     O
    O   1.0     0.900121     0.797141     0.197285  Biso 1.000000     O
    O   1.0     0.496514     0.744899     0.150527  Biso 1.000000     O
    O   1.0     0.996508     0.744898     0.150528  Biso 1.000000     O
    O   1.0     0.100087     0.011136     0.308165  Biso 1.000000     O
    O   1.0     0.600080     0.011137     0.308166  Biso 1.000000     O
    O   1.0     0.034833     0.915426     0.325446  Biso 1.000000     O
    O   1.0     0.534825     0.915428     0.325446  Biso 1.000000     O
    O   1.0     0.111942     0.179884     0.483103  Biso 1.000000     O
    O   1.0     0.611936     0.179885     0.483102  Biso 1.000000     O
    O   1.0     0.022147     0.183117     0.405550  Biso 1.000000     O
    O   1.0     0.522140     0.183117     0.405549  Biso 1.000000     O
    O   1.0     0.484518     0.226932     0.652265  Biso 1.000000     O
    O   1.0     0.984511     0.226932     0.652264  Biso 1.000000     O
    O   1.0     0.427337     0.322599     0.686522  Biso 1.000000     O
    O   1.0     0.927330     0.322599     0.686522  Biso 1.000000     O
    O   1.0     0.150136     0.302728     0.702890  Biso 1.000000     O
    O   1.0     0.650129     0.302729     0.702889  Biso 1.000000     O
    O   1.0     0.246523     0.349484     0.755132  Biso 1.000000     O
    O   1.0     0.746516     0.349485     0.755131  Biso 1.000000     O
    O   1.0     0.350085     0.191844     0.488874  Biso 1.000000     O
    O   1.0     0.850077     0.191844     0.488874  Biso 1.000000     O
    O   1.0     0.284838     0.174565     0.584605  Biso 1.000000     O
    O   1.0     0.784832     0.174563     0.584604  Biso 1.000000     O
    O   1.0     0.111928     0.820144     0.516912  Biso 1.000000     O
    O   1.0     0.611931     0.820134     0.516919  Biso 1.000000     O
    O   1.0     0.022139     0.816911     0.594470  Biso 1.000000     O
    O   1.0     0.522136     0.816903     0.594473  Biso 1.000000     O
    O   1.0     0.484512     0.773089     0.347756  Biso 1.000000     O
    O   1.0     0.984508     0.773089     0.347756  Biso 1.000000     O
    O   1.0     0.427334     0.677423     0.313499  Biso 1.000000     O
    O   1.0     0.927328     0.677421     0.313497  Biso 1.000000     O
    O   1.0     0.150127     0.697285     0.297133  Biso 1.000000     O
    O   1.0     0.650126     0.697295     0.297131  Biso 1.000000     O
    O   1.0     0.246516     0.650527     0.244892  Biso 1.000000     O
    O   1.0     0.746513     0.650538     0.244888  Biso 1.000000     O
    O   1.0     0.350078     0.808175     0.511144  Biso 1.000000     O
    O   1.0     0.850070     0.808177     0.511148  Biso 1.000000     O
    O   1.0     0.284833     0.825455     0.415415  Biso 1.000000     O
    O   1.0     0.784822     0.825457     0.415418  Biso 1.000000     O
    O   1.0     0.111934     0.483108     0.820144  Biso 1.000000     O
    O   1.0     0.611933     0.483104     0.820138  Biso 1.000000     O
    O   1.0     0.022145     0.405552     0.816910  Biso 1.000000     O
    O   1.0     0.522140     0.405550     0.816905  Biso 1.000000     O
    O   1.0     0.484515     0.652265     0.773089  Biso 1.000000     O
    O   1.0     0.984510     0.652264     0.773089  Biso 1.000000     O
    O   1.0     0.427333     0.686522     0.677423  Biso 1.000000     O
    O   1.0     0.927326     0.686523     0.677422  Biso 1.000000     O
    O   1.0     0.150129     0.702888     0.697286  Biso 1.000000     O
    O   1.0     0.650125     0.702889     0.697292  Biso 1.000000     O
    O   1.0     0.246516     0.755129     0.650529  Biso 1.000000     O
    O   1.0     0.746512     0.755131     0.650535  Biso 1.000000     O
    O   1.0     0.350082     0.488875     0.808176  Biso 1.000000     O
    O   1.0     0.850075     0.488874     0.808177  Biso 1.000000     O
    O   1.0     0.284836     0.584605     0.825456  Biso 1.000000     O
    O   1.0     0.784828     0.584604     0.825458  Biso 1.000000     O
    O   1.0     0.111939     0.516918     0.179885  Biso 1.000000     O
    O   1.0     0.611933     0.516919     0.179886  Biso 1.000000     O
    O   1.0     0.022142     0.594472     0.183117  Biso 1.000000     O
    O   1.0     0.522136     0.594472     0.183118  Biso 1.000000     O
    O   1.0     0.484516     0.347756     0.226932  Biso 1.000000     O
    O   1.0     0.984508     0.347756     0.226931  Biso 1.000000     O
    O   1.0     0.427338     0.313499     0.322599  Biso 1.000000     O
    O   1.0     0.927331     0.313499     0.322599  Biso 1.000000     O
    O   1.0     0.150136     0.297131     0.302725  Biso 1.000000     O
    O   1.0     0.650128     0.297132     0.302728  Biso 1.000000     O
    O   1.0     0.246523     0.244888     0.349482  Biso 1.000000     O
    O   1.0     0.746516     0.244889     0.349485  Biso 1.000000     O
    O   1.0     0.350080     0.511147     0.191844  Biso 1.000000     O
    O   1.0     0.850073     0.511147     0.191844  Biso 1.000000     O
    O   1.0     0.284834     0.415417     0.174564  Biso 1.000000     O
    O   1.0     0.784827     0.415417     0.174564  Biso 1.000000     O
   Ba   1.0     0.383445     0.815420     0.647441  Biso 1.000000    Ba
   Ba   1.0     0.883435     0.815422     0.647439  Biso 1.000000    Ba
   Ba   1.0     0.382644     0.685353     0.876157  Biso 1.000000    Ba
   Ba   1.0     0.882636     0.685352     0.876157  Biso 1.000000    Ba
   Ba   1.0     0.383449     0.184599     0.352579  Biso 1.000000    Ba
   Ba   1.0     0.883441     0.184598     0.352580  Biso 1.000000    Ba
   Ba   1.0     0.382643     0.314668     0.123864  Biso 1.000000    Ba
   Ba   1.0     0.882636     0.314668     0.123863  Biso 1.000000    Ba
   Ba   1.0     0.383450     0.352580     0.815421  Biso 1.000000    Ba
   Ba   1.0     0.883440     0.352581     0.815424  Biso 1.000000    Ba
   Ba   1.0     0.382650     0.123864     0.685353  Biso 1.000000    Ba
   Ba   1.0     0.882639     0.123863     0.685353  Biso 1.000000    Ba
   Ba   1.0     0.383443     0.647440     0.184601  Biso 1.000000    Ba
   Ba   1.0     0.883437     0.647441     0.184600  Biso 1.000000    Ba
   Ba   1.0     0.382639     0.876157     0.314668  Biso 1.000000    Ba
   Ba   1.0     0.882632     0.876156     0.314668  Biso 1.000000    Ba
   Ba   1.0     0.133451     0.315411     0.852592  Biso 1.000000    Ba
   Ba   1.0     0.633446     0.315412     0.852590  Biso 1.000000    Ba
   Ba   1.0     0.132650     0.185343     0.623873  Biso 1.000000    Ba
   Ba   1.0     0.632643     0.185343     0.623874  Biso 1.000000    Ba
   Ba   1.0     0.133445     0.684608     0.147432  Biso 1.000000    Ba
   Ba   1.0     0.633440     0.684609     0.147431  Biso 1.000000    Ba
   Ba   1.0     0.132639     0.814677     0.376147  Biso 1.000000    Ba
   Ba   1.0     0.632637     0.814678     0.376147  Biso 1.000000    Ba
   Ba   1.0     0.133446     0.852590     0.684609  Biso 1.000000    Ba
   Ba   1.0     0.633440     0.852590     0.684608  Biso 1.000000    Ba
   Ba   1.0     0.132644     0.623873     0.814678  Biso 1.000000    Ba
   Ba   1.0     0.632640     0.623874     0.814678  Biso 1.000000    Ba
   Ba   1.0     0.133451     0.147431     0.315410  Biso 1.000000    Ba
   Ba   1.0     0.633444     0.147431     0.315411  Biso 1.000000    Ba
   Ba   1.0     0.132646     0.376147     0.185343  Biso 1.000000    Ba
   Ba   1.0     0.632640     0.376147     0.185343  Biso 1.000000    Ba
