#======================================================================

# CRYSTAL DATA

#----------------------------------------------------------------------

data_VESTA_phase_1


_pd_phase_name                         MOF
_cell_length_a                         12.59900
_cell_length_b                         17.29200
_cell_length_c                         19.29400
_cell_angle_alpha                      65.18100
_cell_angle_beta                       84.55000
_cell_angle_gamma                      83.65900
_symmetry_space_group_name_H-M         "P 1"
_symmetry_Int_Tables_number            1

loop_
_symmetry_equiv_pos_as_xyz
   "x, y, z"

loop_
   _atom_site_label
   _atom_site_occupancy
   _atom_site_fract_x
   _atom_site_fract_y
   _atom_site_fract_z
   _atom_site_adp_type
   _atom_site_B_iso_or_equiv
   _atom_site_type_symbol
    C   1.0     0.091182     0.294137     0.413360  Biso 1.000000     C
    C   1.0     0.091177     0.294136     0.913359  Biso 1.000000     C
    C   1.0     0.091177     0.794137     0.413378  Biso 1.000000     C
    C   1.0     0.091177     0.794158     0.913350  Biso 1.000000     C
    C   1.0     0.591178     0.294129     0.413369  Biso 1.000000     C
    C   1.0     0.591175     0.294139     0.913356  Biso 1.000000     C
    C   1.0     0.591176     0.794146     0.413367  Biso 1.000000     C
    C   1.0     0.591173     0.794158     0.913351  Biso 1.000000     C
    C   1.0     0.162763     0.341857     0.440804  Biso 1.000000     C
    C   1.0     0.162759     0.341868     0.940790  Biso 1.000000     C
    C   1.0     0.162758     0.841888     0.440788  Biso 1.000000     C
    C   1.0     0.162757     0.841875     0.940798  Biso 1.000000     C
    C   1.0     0.662758     0.341866     0.440796  Biso 1.000000     C
    C   1.0     0.662755     0.341866     0.940793  Biso 1.000000     C
    C   1.0     0.662757     0.841878     0.440798  Biso 1.000000     C
    C   1.0     0.662754     0.841876     0.940797  Biso 1.000000     C
    C   1.0     0.070651     0.109266     0.341039  Biso 1.000000     C
    C   1.0     0.070647     0.109270     0.841031  Biso 1.000000     C
    C   1.0     0.070649     0.609280     0.341039  Biso 1.000000     C
    C   1.0     0.070645     0.609285     0.841031  Biso 1.000000     C
    C   1.0     0.570648     0.109265     0.341039  Biso 1.000000     C
    C   1.0     0.570644     0.109270     0.841031  Biso 1.000000     C
    C   1.0     0.570645     0.609280     0.341039  Biso 1.000000     C
    C   1.0     0.570641     0.609285     0.841031  Biso 1.000000     C
    C   1.0     0.194647     0.106306     0.342365  Biso 1.000000     C
    C   1.0     0.194643     0.106311     0.842357  Biso 1.000000     C
    C   1.0     0.194645     0.606322     0.342365  Biso 1.000000     C
    C   1.0     0.194641     0.606326     0.842357  Biso 1.000000     C
    C   1.0     0.694644     0.106307     0.342365  Biso 1.000000     C
    C   1.0     0.694640     0.106311     0.842357  Biso 1.000000     C
    C   1.0     0.694641     0.606321     0.342365  Biso 1.000000     C
    C   1.0     0.694638     0.606326     0.842357  Biso 1.000000     C
    C   1.0     0.408809     0.205884     0.086631  Biso 1.000000     C
    C   1.0     0.408805     0.205883     0.586630  Biso 1.000000     C
    C   1.0     0.408808     0.705909     0.086619  Biso 1.000000     C
    C   1.0     0.408803     0.705901     0.586626  Biso 1.000000     C
    C   1.0     0.908806     0.205886     0.086628  Biso 1.000000     C
    C   1.0     0.908803     0.205893     0.586618  Biso 1.000000     C
    C   1.0     0.908803     0.705898     0.086631  Biso 1.000000     C
    C   1.0     0.908799     0.705897     0.586630  Biso 1.000000     C
    C   1.0     0.337228     0.158161     0.059190  Biso 1.000000     C
    C   1.0     0.337223     0.158173     0.559175  Biso 1.000000     C
    C   1.0     0.337227     0.658164     0.059200  Biso 1.000000     C
    C   1.0     0.337223     0.658183     0.559179  Biso 1.000000     C
    C   1.0     0.837225     0.158158     0.059192  Biso 1.000000     C
    C   1.0     0.837222     0.158161     0.559186  Biso 1.000000     C
    C   1.0     0.837222     0.658176     0.059189  Biso 1.000000     C
    C   1.0     0.837218     0.658188     0.559175  Biso 1.000000     C
    C   1.0     0.429340     0.390754     0.158953  Biso 1.000000     C
    C   1.0     0.429336     0.390759     0.658945  Biso 1.000000     C
    C   1.0     0.429338     0.890769     0.158953  Biso 1.000000     C
    C   1.0     0.429334     0.890774     0.658946  Biso 1.000000     C
    C   1.0     0.929337     0.390754     0.158953  Biso 1.000000     C
    C   1.0     0.929333     0.390760     0.658946  Biso 1.000000     C
    C   1.0     0.929334     0.890769     0.158953  Biso 1.000000     C
    C   1.0     0.929331     0.890774     0.658946  Biso 1.000000     C
    C   1.0     0.305344     0.393713     0.157627  Biso 1.000000     C
    C   1.0     0.305340     0.393718     0.657620  Biso 1.000000     C
    C   1.0     0.305341     0.893727     0.157627  Biso 1.000000     C
    C   1.0     0.305338     0.893733     0.657620  Biso 1.000000     C
    C   1.0     0.805340     0.393713     0.157627  Biso 1.000000     C
    C   1.0     0.805337     0.393718     0.657620  Biso 1.000000     C
    C   1.0     0.805338     0.893728     0.157627  Biso 1.000000     C
    C   1.0     0.805334     0.893733     0.657620  Biso 1.000000     C
    O   1.0     0.493733     0.321384     0.403681  Biso 1.000000     O
    O   1.0     0.493728     0.321389     0.903672  Biso 1.000000     O
    O   1.0     0.493730     0.821398     0.403681  Biso 1.000000     O
    O   1.0     0.493725     0.821405     0.903670  Biso 1.000000     O
    O   1.0     0.993727     0.321384     0.403679  Biso 1.000000     O
    O   1.0     0.993725     0.321389     0.903672  Biso 1.000000     O
    O   1.0     0.993728     0.821397     0.403683  Biso 1.000000     O
    O   1.0     0.993722     0.821405     0.903670  Biso 1.000000     O
    O   1.0     0.134816     0.228227     0.405265  Biso 1.000000     O
    O   1.0     0.134813     0.228230     0.905258  Biso 1.000000     O
    O   1.0     0.134814     0.728237     0.405267  Biso 1.000000     O
    O   1.0     0.134810     0.728247     0.905257  Biso 1.000000     O
    O   1.0     0.634813     0.228224     0.405266  Biso 1.000000     O
    O   1.0     0.634809     0.228231     0.905257  Biso 1.000000     O
    O   1.0     0.634811     0.728240     0.405266  Biso 1.000000     O
    O   1.0     0.634807     0.728248     0.905257  Biso 1.000000     O
    O   1.0     0.119696     0.370233     0.488708  Biso 1.000000     O
    O   1.0     0.119692     0.370238     0.988699  Biso 1.000000     O
    O   1.0     0.119693     0.870248     0.488704  Biso 1.000000     O
    O   1.0     0.119690     0.870252     0.988701  Biso 1.000000     O
    O   1.0     0.619692     0.370233     0.488706  Biso 1.000000     O
    O   1.0     0.619689     0.370238     0.988700  Biso 1.000000     O
    O   1.0     0.619690     0.870248     0.488706  Biso 1.000000     O
    O   1.0     0.619687     0.870252     0.988701  Biso 1.000000     O
    O   1.0     0.259738     0.346896     0.415638  Biso 1.000000     O
    O   1.0     0.259735     0.346902     0.915630  Biso 1.000000     O
    O   1.0     0.259739     0.846915     0.415635  Biso 1.000000     O
    O   1.0     0.259730     0.846914     0.915631  Biso 1.000000     O
    O   1.0     0.759736     0.346898     0.415637  Biso 1.000000     O
    O   1.0     0.759731     0.346901     0.915630  Biso 1.000000     O
    O   1.0     0.759733     0.846913     0.415637  Biso 1.000000     O
    O   1.0     0.759728     0.846915     0.915631  Biso 1.000000     O
    O   1.0     0.018411     0.069970     0.404408  Biso 1.000000     O
    O   1.0     0.018407     0.069974     0.904400  Biso 1.000000     O
    O   1.0     0.018409     0.569984     0.404408  Biso 1.000000     O
    O   1.0     0.018405     0.569989     0.904400  Biso 1.000000     O
    O   1.0     0.518408     0.069969     0.404408  Biso 1.000000     O
    O   1.0     0.518404     0.069974     0.904400  Biso 1.000000     O
    O   1.0     0.518405     0.569984     0.404408  Biso 1.000000     O
    O   1.0     0.518402     0.569989     0.904400  Biso 1.000000     O
    O   1.0     0.028116     0.155279     0.278876  Biso 1.000000     O
    O   1.0     0.028112     0.155284     0.778869  Biso 1.000000     O
    O   1.0     0.028114     0.655294     0.278876  Biso 1.000000     O
    O   1.0     0.028110     0.655298     0.778868  Biso 1.000000     O
    O   1.0     0.528113     0.155279     0.278876  Biso 1.000000     O
    O   1.0     0.528109     0.155284     0.778869  Biso 1.000000     O
    O   1.0     0.528110     0.655294     0.278877  Biso 1.000000     O
    O   1.0     0.528107     0.655299     0.778869  Biso 1.000000     O
    O   1.0     0.236881     0.064381     0.406675  Biso 1.000000     O
    O   1.0     0.236877     0.064386     0.906667  Biso 1.000000     O
    O   1.0     0.236879     0.564395     0.406674  Biso 1.000000     O
    O   1.0     0.236875     0.564401     0.906667  Biso 1.000000     O
    O   1.0     0.736878     0.064381     0.406675  Biso 1.000000     O
    O   1.0     0.736874     0.064386     0.906667  Biso 1.000000     O
    O   1.0     0.736876     0.564395     0.406675  Biso 1.000000     O
    O   1.0     0.736872     0.564401     0.906667  Biso 1.000000     O
    O   1.0     0.244721     0.150901     0.281065  Biso 1.000000     O
    O   1.0     0.244717     0.150906     0.781058  Biso 1.000000     O
    O   1.0     0.244718     0.650916     0.281065  Biso 1.000000     O
    O   1.0     0.244715     0.650921     0.781058  Biso 1.000000     O
    O   1.0     0.744717     0.150901     0.281065  Biso 1.000000     O
    O   1.0     0.744714     0.150906     0.781058  Biso 1.000000     O
    O   1.0     0.744715     0.650916     0.281065  Biso 1.000000     O
    O   1.0     0.744711     0.650921     0.781058  Biso 1.000000     O
    O   1.0     0.006259     0.178635     0.096313  Biso 1.000000     O
    O   1.0     0.006255     0.178640     0.596305  Biso 1.000000     O
    O   1.0     0.006257     0.678650     0.096313  Biso 1.000000     O
    O   1.0     0.006255     0.678653     0.596308  Biso 1.000000     O
    O   1.0     0.506256     0.178635     0.096313  Biso 1.000000     O
    O   1.0     0.506254     0.178639     0.596307  Biso 1.000000     O
    O   1.0     0.506252     0.678651     0.096310  Biso 1.000000     O
    O   1.0     0.506250     0.678653     0.596307  Biso 1.000000     O
    O   1.0     0.365175     0.271793     0.094727  Biso 1.000000     O
    O   1.0     0.365171     0.271795     0.594720  Biso 1.000000     O
    O   1.0     0.365172     0.771811     0.094725  Biso 1.000000     O
    O   1.0     0.365169     0.771811     0.594721  Biso 1.000000     O
    O   1.0     0.865171     0.271793     0.094727  Biso 1.000000     O
    O   1.0     0.865168     0.271799     0.594719  Biso 1.000000     O
    O   1.0     0.865169     0.771807     0.094727  Biso 1.000000     O
    O   1.0     0.865166     0.771810     0.594721  Biso 1.000000     O
    O   1.0     0.380295     0.129787     0.011284  Biso 1.000000     O
    O   1.0     0.380291     0.129792     0.511275  Biso 1.000000     O
    O   1.0     0.380293     0.629801     0.011288  Biso 1.000000     O
    O   1.0     0.380289     0.629807     0.511275  Biso 1.000000     O
    O   1.0     0.880292     0.129787     0.011285  Biso 1.000000     O
    O   1.0     0.880288     0.129792     0.511277  Biso 1.000000     O
    O   1.0     0.880289     0.629801     0.011284  Biso 1.000000     O
    O   1.0     0.880285     0.629807     0.511274  Biso 1.000000     O
    O   1.0     0.240253     0.153123     0.084354  Biso 1.000000     O
    O   1.0     0.240251     0.153130     0.584345  Biso 1.000000     O
    O   1.0     0.240248     0.653135     0.084356  Biso 1.000000     O
    O   1.0     0.240248     0.653145     0.584345  Biso 1.000000     O
    O   1.0     0.740249     0.153123     0.084354  Biso 1.000000     O
    O   1.0     0.740246     0.153128     0.584347  Biso 1.000000     O
    O   1.0     0.740248     0.653138     0.084355  Biso 1.000000     O
    O   1.0     0.740245     0.653145     0.584345  Biso 1.000000     O
    O   1.0     0.481580     0.430050     0.095585  Biso 1.000000     O
    O   1.0     0.481576     0.430055     0.595577  Biso 1.000000     O
    O   1.0     0.481577     0.930065     0.095584  Biso 1.000000     O
    O   1.0     0.481574     0.930070     0.595577  Biso 1.000000     O
    O   1.0     0.981577     0.430050     0.095584  Biso 1.000000     O
    O   1.0     0.981573     0.430055     0.595577  Biso 1.000000     O
    O   1.0     0.981574     0.930065     0.095584  Biso 1.000000     O
    O   1.0     0.981571     0.930070     0.595577  Biso 1.000000     O
    O   1.0     0.471875     0.344741     0.221116  Biso 1.000000     O
    O   1.0     0.471871     0.344745     0.721108  Biso 1.000000     O
    O   1.0     0.471872     0.844755     0.221116  Biso 1.000000     O
    O   1.0     0.471869     0.844760     0.721108  Biso 1.000000     O
    O   1.0     0.971871     0.344740     0.221116  Biso 1.000000     O
    O   1.0     0.971868     0.344745     0.721108  Biso 1.000000     O
    O   1.0     0.971869     0.844755     0.221116  Biso 1.000000     O
    O   1.0     0.971866     0.844760     0.721108  Biso 1.000000     O
    O   1.0     0.263110     0.435638     0.093318  Biso 1.000000     O
    O   1.0     0.263106     0.435643     0.593310  Biso 1.000000     O
    O   1.0     0.263107     0.935653     0.093318  Biso 1.000000     O
    O   1.0     0.263104     0.935658     0.593310  Biso 1.000000     O
    O   1.0     0.763106     0.435639     0.093318  Biso 1.000000     O
    O   1.0     0.763103     0.435643     0.593310  Biso 1.000000     O
    O   1.0     0.763104     0.935653     0.093318  Biso 1.000000     O
    O   1.0     0.763101     0.935658     0.593310  Biso 1.000000     O
    O   1.0     0.255270     0.349119     0.218927  Biso 1.000000     O
    O   1.0     0.255267     0.349123     0.718919  Biso 1.000000     O
    O   1.0     0.255268     0.849133     0.218927  Biso 1.000000     O
    O   1.0     0.255264     0.849138     0.718919  Biso 1.000000     O
    O   1.0     0.755267     0.349118     0.218927  Biso 1.000000     O
    O   1.0     0.755263     0.349123     0.718919  Biso 1.000000     O
    O   1.0     0.755264     0.849133     0.218927  Biso 1.000000     O
    O   1.0     0.755261     0.849138     0.718919  Biso 1.000000     O
   Ba   1.0     0.359940     0.235291     0.350150  Biso 1.000000    Ba
   Ba   1.0     0.359938     0.235296     0.850142  Biso 1.000000    Ba
   Ba   1.0     0.359939     0.735306     0.350150  Biso 1.000000    Ba
   Ba   1.0     0.359935     0.735311     0.850142  Biso 1.000000    Ba
   Ba   1.0     0.859938     0.235291     0.350150  Biso 1.000000    Ba
   Ba   1.0     0.859934     0.235296     0.850142  Biso 1.000000    Ba
   Ba   1.0     0.859934     0.735306     0.350151  Biso 1.000000    Ba
   Ba   1.0     0.859932     0.735311     0.850142  Biso 1.000000    Ba
   Ba   1.0     0.392962     0.431339     0.466721  Biso 1.000000    Ba
   Ba   1.0     0.392958     0.431344     0.966713  Biso 1.000000    Ba
   Ba   1.0     0.392959     0.931354     0.466721  Biso 1.000000    Ba
   Ba   1.0     0.392957     0.931358     0.966713  Biso 1.000000    Ba
   Ba   1.0     0.892959     0.431339     0.466721  Biso 1.000000    Ba
   Ba   1.0     0.892955     0.431344     0.966713  Biso 1.000000    Ba
   Ba   1.0     0.892957     0.931354     0.466721  Biso 1.000000    Ba
   Ba   1.0     0.892953     0.931358     0.966713  Biso 1.000000    Ba
   Ba   1.0     0.140050     0.264728     0.149843  Biso 1.000000    Ba
   Ba   1.0     0.140047     0.264733     0.649834  Biso 1.000000    Ba
   Ba   1.0     0.140047     0.764743     0.149842  Biso 1.000000    Ba
   Ba   1.0     0.140043     0.764747     0.649835  Biso 1.000000    Ba
   Ba   1.0     0.640046     0.264728     0.149842  Biso 1.000000    Ba
   Ba   1.0     0.640042     0.264733     0.649835  Biso 1.000000    Ba
   Ba   1.0     0.640045     0.764743     0.149842  Biso 1.000000    Ba
   Ba   1.0     0.640041     0.764747     0.649835  Biso 1.000000    Ba
   Ba   1.0     0.107028     0.068681     0.033271  Biso 1.000000    Ba
   Ba   1.0     0.107025     0.068686     0.533263  Biso 1.000000    Ba
   Ba   1.0     0.107027     0.568695     0.033271  Biso 1.000000    Ba
   Ba   1.0     0.107022     0.568701     0.533263  Biso 1.000000    Ba
   Ba   1.0     0.607025     0.068681     0.033271  Biso 1.000000    Ba
   Ba   1.0     0.607022     0.068686     0.533263  Biso 1.000000    Ba
   Ba   1.0     0.607023     0.568695     0.033271  Biso 1.000000    Ba
   Ba   1.0     0.607019     0.568701     0.533263  Biso 1.000000    Ba
