#======================================================================

# CRYSTAL DATA

#----------------------------------------------------------------------

data_VESTA_phase_1


_pd_phase_name                         MOF
_cell_length_a                         14.01900
_cell_length_b                         14.61500
_cell_length_c                         16.67100
_cell_angle_alpha                      116.04400
_cell_angle_beta                       88.38000
_cell_angle_gamma                      90.02400
_symmetry_space_group_name_H-M         "P 1"
_symmetry_Int_Tables_number            1

loop_
_symmetry_equiv_pos_as_xyz
   "x, y, z"

loop_
   _atom_site_label
   _atom_site_occupancy
   _atom_site_fract_x
   _atom_site_fract_y
   _atom_site_fract_z
   _atom_site_adp_type
   _atom_site_B_iso_or_equiv
   _atom_site_type_symbol
    H   1.0     0.524064     0.664434     0.050913  Biso 1.000000     H
    H   1.0     0.565714     0.623091     0.891511  Biso 1.000000     H
    H   1.0     0.578852     0.943287     0.960233  Biso 1.000000     H
    H   1.0     0.534682     0.983967     0.119646  Biso 1.000000     H
    H   1.0     0.606504     0.670895     0.778733  Biso 1.000000     H
    H   1.0     0.544532     0.885818     0.678712  Biso 1.000000     H
    H   1.0     0.747718     0.679317     0.702752  Biso 1.000000     H
    H   1.0     0.711975     0.680153     0.447713  Biso 1.000000     H
    H   1.0     0.976138     0.612982     0.948600  Biso 1.000000     H
    H   1.0     0.934197     0.730827     0.108062  Biso 1.000000     H
    H   1.0     0.921157     0.982811     0.040175  Biso 1.000000     H
    H   1.0     0.965655     0.864289     0.880703  Biso 1.000000     H
    H   1.0     0.893750     0.891400     0.221175  Biso 1.000000     H
    H   1.0     0.952122     0.207849     0.320877  Biso 1.000000     H
    H   1.0     0.753102     0.973913     0.297821  Biso 1.000000     H
    H   1.0     0.787596     0.230976     0.552585  Biso 1.000000     H
    H   1.0     0.475987     0.335570     0.949146  Biso 1.000000     H
    H   1.0     0.434389     0.376915     0.108559  Biso 1.000000     H
    H   1.0     0.421331     0.056720     0.039855  Biso 1.000000     H
    H   1.0     0.465453     0.016037     0.880431  Biso 1.000000     H
    H   1.0     0.393653     0.329109     0.221347  Biso 1.000000     H
    H   1.0     0.455552     0.114163     0.321363  Biso 1.000000     H
    H   1.0     0.252428     0.320703     0.297299  Biso 1.000000     H
    H   1.0     0.288100     0.319857     0.552342  Biso 1.000000     H
    H   1.0     0.023851     0.387017     0.051446  Biso 1.000000     H
    H   1.0     0.065780     0.269168     0.891982  Biso 1.000000     H
    H   1.0     0.078849     0.017191     0.959876  Biso 1.000000     H
    H   1.0     0.034359     0.135717     0.119350  Biso 1.000000     H
    H   1.0     0.106243     0.108599     0.778874  Biso 1.000000     H
    H   1.0     0.047906     0.792153     0.679165  Biso 1.000000     H
    H   1.0     0.246920     0.026105     0.702251  Biso 1.000000     H
    H   1.0     0.212441     0.769058     0.447473  Biso 1.000000     H
    C   1.0     0.503374     0.850902     0.188958  Biso 1.000000     C
    C   1.0     0.527023     0.826338     0.094045  Biso 1.000000     C
    C   1.0     0.535742     0.724588     0.030034  Biso 1.000000     C
    C   1.0     0.559045     0.702190     0.941693  Biso 1.000000     C
    C   1.0     0.574248     0.780879     0.915925  Biso 1.000000     C
    C   1.0     0.566026     0.882977     0.980710  Biso 1.000000     C
    C   1.0     0.542187     0.905433     0.068811  Biso 1.000000     C
    C   1.0     0.598370     0.753428     0.822334  Biso 1.000000     C
    C   1.0     0.576661     0.828046     0.500617  Biso 1.000000     C
    C   1.0     0.622637     0.786225     0.557019  Biso 1.000000     C
    C   1.0     0.597115     0.824510     0.647925  Biso 1.000000     C
    C   1.0     0.638157     0.782477     0.700366  Biso 1.000000     C
    C   1.0     0.710222     0.707983     0.661984  Biso 1.000000     C
    C   1.0     0.737756     0.671743     0.571670  Biso 1.000000     C
    C   1.0     0.692155     0.708914     0.518236  Biso 1.000000     C
    C   1.0     0.817932     0.595831     0.535641  Biso 1.000000     C
    C   1.0     0.996878     0.661740     0.810919  Biso 1.000000     C
    C   1.0     0.973233     0.732015     0.905885  Biso 1.000000     C
    C   1.0     0.964420     0.694072     0.969681  Biso 1.000000     C
    C   1.0     0.940959     0.759913     0.058052  Biso 1.000000     C
    C   1.0     0.925639     0.864430     0.084052  Biso 1.000000     C
    C   1.0     0.934016     0.901965     0.019492  Biso 1.000000     C
    C   1.0     0.958050     0.836425     0.931369  Biso 1.000000     C
    C   1.0     0.901287     0.930414     0.177644  Biso 1.000000     C
    C   1.0     0.920060     0.328192     0.499150  Biso 1.000000     C
    C   1.0     0.875260     0.229061     0.442887  Biso 1.000000     C
    C   1.0     0.900568     0.176569     0.351907  Biso 1.000000     C
    C   1.0     0.860718     0.081217     0.299709  Biso 1.000000     C
    C   1.0     0.789880     0.044043     0.338385  Biso 1.000000     C
    C   1.0     0.762647     0.097872     0.428789  Biso 1.000000     C
    C   1.0     0.807185     0.189395     0.481987  Biso 1.000000     C
    C   1.0     0.683653     0.056992     0.465193  Biso 1.000000     C
    C   1.0     0.496672     0.149098     0.811104  Biso 1.000000     C
    C   1.0     0.473073     0.173666     0.906026  Biso 1.000000     C
    C   1.0     0.464351     0.275417     0.970034  Biso 1.000000     C
    C   1.0     0.441059     0.297816     0.058377  Biso 1.000000     C
    C   1.0     0.425889     0.219126     0.084150  Biso 1.000000     C
    C   1.0     0.434122     0.117028     0.019370  Biso 1.000000     C
    C   1.0     0.457951     0.094571     0.931266  Biso 1.000000     C
    C   1.0     0.401778     0.246576     0.177741  Biso 1.000000     C
    C   1.0     0.423391     0.171940     0.499450  Biso 1.000000     C
    C   1.0     0.377437     0.213767     0.443045  Biso 1.000000     C
    C   1.0     0.402974     0.175478     0.352143  Biso 1.000000     C
    C   1.0     0.361959     0.217520     0.299697  Biso 1.000000     C
    C   1.0     0.289903     0.292025     0.338070  Biso 1.000000     C
    C   1.0     0.262357     0.328271     0.428381  Biso 1.000000     C
    C   1.0     0.307930     0.291090     0.481822  Biso 1.000000     C
    C   1.0     0.182203     0.404207     0.464396  Biso 1.000000     C
    C   1.0     0.003152     0.338267     0.189135  Biso 1.000000     C
    C   1.0     0.026772     0.267988     0.094165  Biso 1.000000     C
    C   1.0     0.035572     0.305928     0.030366  Biso 1.000000     C
    C   1.0     0.059026     0.240085     0.941994  Biso 1.000000     C
    C   1.0     0.074354     0.135570     0.915997  Biso 1.000000     C
    C   1.0     0.065984     0.098037     0.980558  Biso 1.000000     C
    C   1.0     0.041956     0.163579     0.068682  Biso 1.000000     C
    C   1.0     0.098712     0.069587     0.822406  Biso 1.000000     C
    C   1.0     0.079986     0.671830     0.500890  Biso 1.000000     C
    C   1.0     0.124775     0.770959     0.557164  Biso 1.000000     C
    C   1.0     0.099462     0.823439     0.648143  Biso 1.000000     C
    C   1.0     0.139306     0.918791     0.700347  Biso 1.000000     C
    C   1.0     0.210147     0.955974     0.661681  Biso 1.000000     C
    C   1.0     0.237384     0.902152     0.571277  Biso 1.000000     C
    C   1.0     0.192850     0.810632     0.518071  Biso 1.000000     C
    C   1.0     0.316384     0.943028     0.534879  Biso 1.000000     C
    N   1.0     0.608564     0.819016     0.790450  Biso 1.000000     N
    N   1.0     0.890257     0.027853     0.209586  Biso 1.000000     N
    N   1.0     0.391561     0.180984     0.209618  Biso 1.000000     N
    N   1.0     0.109756     0.972150     0.790468  Biso 1.000000     N
    O   1.0     0.492301     0.778704     0.212795  Biso 1.000000     O
    O   1.0     0.496441     0.944459     0.246912  Biso 1.000000     O
    O   1.0     0.575828     0.776217     0.416395  Biso 1.000000     O
    O   1.0     0.537181     0.917783     0.538725  Biso 1.000000     O
    O   1.0     0.856265     0.568162     0.590199  Biso 1.000000     O
    O   1.0     0.845135     0.563354     0.453639  Biso 1.000000     O
    O   1.0     0.000000     0.565600     0.786906  Biso 1.000000     O
    O   1.0     0.003862     0.697425     0.753111  Biso 1.000000     O
    O   1.0     0.920465     0.361126     0.583452  Biso 1.000000     O
    O   1.0     0.959065     0.379854     0.460920  Biso 1.000000     O
    O   1.0     0.645003     0.974854     0.410601  Biso 1.000000     O
    O   1.0     0.657687     0.105791     0.547618  Biso 1.000000     O
    O   1.0     0.507755     0.221293     0.787267  Biso 1.000000     O
    O   1.0     0.503621     0.055538     0.753156  Biso 1.000000     O
    O   1.0     0.424218     0.223766     0.583672  Biso 1.000000     O
    O   1.0     0.462849     0.082192     0.461343  Biso 1.000000     O
    O   1.0     0.143935     0.431916     0.409836  Biso 1.000000     O
    O   1.0     0.154946     0.436650     0.546382  Biso 1.000000     O
    O   1.0    -0.007732     0.434410     0.213154  Biso 1.000000     O
    O   1.0     0.996180     0.302582     0.246944  Biso 1.000000     O
    O   1.0     0.079565     0.638921     0.416591  Biso 1.000000     O
    O   1.0     0.041016     0.620137     0.539106  Biso 1.000000     O
    O   1.0     0.355036     0.025161     0.589475  Biso 1.000000     O
    O   1.0     0.342359     0.894222     0.452456  Biso 1.000000     O
   La   1.0     0.490508     0.898933     0.374409  Biso 1.000000    La
   La   1.0     0.008930     0.524068     0.625455  Biso 1.000000    La
   La   1.0     0.509540     0.101053     0.625655  Biso 1.000000    La
   La   1.0     0.991183     0.475936     0.374598  Biso 1.000000    La
