#======================================================================

# CRYSTAL DATA

#----------------------------------------------------------------------

data_VESTA_phase_1


_pd_phase_name                         MOF
_cell_length_a                         17.66500
_cell_length_b                         15.53000
_cell_length_c                         19.77000
_cell_angle_alpha                      90.02800
_cell_angle_beta                       89.99600
_cell_angle_gamma                      90.02200
_symmetry_space_group_name_H-M         "P 1"
_symmetry_Int_Tables_number            1

loop_
_symmetry_equiv_pos_as_xyz
   "x, y, z"

loop_
   _atom_site_label
   _atom_site_occupancy
   _atom_site_fract_x
   _atom_site_fract_y
   _atom_site_fract_z
   _atom_site_adp_type
   _atom_site_B_iso_or_equiv
   _atom_site_type_symbol
    H   1.0     0.025291     0.143199     0.852256  Biso 1.000000     H
    H   1.0     0.525288     0.143204     0.852272  Biso 1.000000     H
    H   1.0     0.455614     0.240151     0.934550  Biso 1.000000     H
    H   1.0     0.955601     0.240139     0.934544  Biso 1.000000     H
    H   1.0     0.003431     0.249211     0.052556  Biso 1.000000     H
    H   1.0     0.503394     0.249214     0.052571  Biso 1.000000     H
    H   1.0     0.260482     0.948573     0.157668  Biso 1.000000     H
    H   1.0     0.760385     0.948516     0.157714  Biso 1.000000     H
    H   1.0     0.381570     0.976797     0.093117  Biso 1.000000     H
    H   1.0     0.881482     0.976720     0.093180  Biso 1.000000     H
    H   1.0     0.372892     0.056422     0.983520  Biso 1.000000     H
    H   1.0     0.872843     0.056373     0.983592  Biso 1.000000     H
    H   1.0     0.255498     0.145737     0.608246  Biso 1.000000     H
    H   1.0     0.755443     0.145704     0.608251  Biso 1.000000     H
    H   1.0     0.340321     0.299333     0.616119  Biso 1.000000     H
    H   1.0     0.840292     0.299291     0.616103  Biso 1.000000     H
    H   1.0     0.345653     0.236285     0.855955  Biso 1.000000     H
    H   1.0     0.845637     0.236278     0.855941  Biso 1.000000     H
    H   1.0     0.288909     0.141734     0.851916  Biso 1.000000     H
    H   1.0     0.788896     0.141722     0.851914  Biso 1.000000     H
    H   1.0     0.387780     0.135525     0.836356  Biso 1.000000     H
    H   1.0     0.887768     0.135519     0.836349  Biso 1.000000     H
    H   1.0     0.391193     0.382704     0.710571  Biso 1.000000     H
    H   1.0     0.891166     0.382678     0.710546  Biso 1.000000     H
    H   1.0     0.372979     0.349977     0.794543  Biso 1.000000     H
    H   1.0     0.872947     0.349961     0.794520  Biso 1.000000     H
    H   1.0     0.484213     0.249570     0.790974  Biso 1.000000     H
    H   1.0     0.984195     0.249572     0.790971  Biso 1.000000     H
    H   1.0     0.007934     0.358819     0.781662  Biso 1.000000     H
    H   1.0     0.507944     0.358815     0.781673  Biso 1.000000     H
    H   1.0     0.491834     0.231461     0.662760  Biso 1.000000     H
    H   1.0     0.991831     0.231450     0.662758  Biso 1.000000     H
    H   1.0     0.020883     0.339605     0.656375  Biso 1.000000     H
    H   1.0     0.520868     0.339613     0.656380  Biso 1.000000     H
    H   1.0     0.130238     0.237557     0.652162  Biso 1.000000     H
    H   1.0     0.630215     0.237556     0.652152  Biso 1.000000     H
    H   1.0     0.104361     0.192748     0.730628  Biso 1.000000     H
    H   1.0     0.604344     0.192743     0.730618  Biso 1.000000     H
    H   1.0     0.155175     0.252967     0.834473  Biso 1.000000     H
    H   1.0     0.655168     0.252959     0.834464  Biso 1.000000     H
    H   1.0     0.242036     0.398664     0.864989  Biso 1.000000     H
    H   1.0     0.742025     0.398658     0.864982  Biso 1.000000     H
    H   1.0     0.223259     0.453475     0.624339  Biso 1.000000     H
    H   1.0     0.723242     0.453476     0.624333  Biso 1.000000     H
    H   1.0     0.164503     0.364141     0.605552  Biso 1.000000     H
    H   1.0     0.664481     0.364144     0.605545  Biso 1.000000     H
    H   1.0     0.122984     0.461112     0.635050  Biso 1.000000     H
    H   1.0     0.622969     0.461115     0.635050  Biso 1.000000     H
    H   1.0     0.225511     0.856807     0.352002  Biso 1.000000     H
    H   1.0     0.724846     0.857054     0.352165  Biso 1.000000     H
    H   1.0     0.294553     0.759581     0.434384  Biso 1.000000     H
    H   1.0     0.794394     0.759917     0.434323  Biso 1.000000     H
    H   1.0     0.246190     0.750574     0.552211  Biso 1.000000     H
    H   1.0     0.746387     0.750559     0.552234  Biso 1.000000     H
    H   1.0     0.489564     0.051253     0.657846  Biso 1.000000     H
    H   1.0     0.989827     0.050894     0.657750  Biso 1.000000     H
    H   1.0     0.368475     0.023246     0.593221  Biso 1.000000     H
    H   1.0     0.868760     0.023097     0.593043  Biso 1.000000     H
    H   1.0     0.377159     0.943953     0.483426  Biso 1.000000     H
    H   1.0     0.877545     0.944696     0.482857  Biso 1.000000     H
    H   1.0     0.494614     0.853981     0.108215  Biso 1.000000     H
    H   1.0     0.994572     0.853961     0.108161  Biso 1.000000     H
    H   1.0     0.409850     0.700355     0.116186  Biso 1.000000     H
    H   1.0     0.909840     0.700316     0.116187  Biso 1.000000     H
    H   1.0     0.404343     0.764009     0.355984  Biso 1.000000     H
    H   1.0     0.904306     0.764084     0.355942  Biso 1.000000     H
    H   1.0     0.461207     0.858450     0.351876  Biso 1.000000     H
    H   1.0     0.961119     0.858566     0.351834  Biso 1.000000     H
    H   1.0     0.362356     0.864796     0.336306  Biso 1.000000     H
    H   1.0     0.862247     0.864821     0.336245  Biso 1.000000     H
    H   1.0     0.359019     0.617170     0.210696  Biso 1.000000     H
    H   1.0     0.858982     0.617198     0.210712  Biso 1.000000     H
    H   1.0     0.377171     0.650154     0.294651  Biso 1.000000     H
    H   1.0     0.877161     0.650204     0.294657  Biso 1.000000     H
    H   1.0     0.265866     0.750388     0.291000  Biso 1.000000     H
    H   1.0     0.765851     0.750447     0.291012  Biso 1.000000     H
    H   1.0     0.242195     0.641120     0.281705  Biso 1.000000     H
    H   1.0     0.742176     0.641174     0.281729  Biso 1.000000     H
    H   1.0     0.258373     0.768259     0.162756  Biso 1.000000     H
    H   1.0     0.758357     0.768289     0.162765  Biso 1.000000     H
    H   1.0     0.229309     0.660109     0.156416  Biso 1.000000     H
    H   1.0     0.729298     0.660136     0.156437  Biso 1.000000     H
    H   1.0     0.119987     0.762176     0.152105  Biso 1.000000     H
    H   1.0     0.619969     0.762196     0.152109  Biso 1.000000     H
    H   1.0     0.145842     0.807188     0.230541  Biso 1.000000     H
    H   1.0     0.645815     0.807214     0.230546  Biso 1.000000     H
    H   1.0     0.094900     0.747305     0.334414  Biso 1.000000     H
    H   1.0     0.594913     0.747295     0.334430  Biso 1.000000     H
    H   1.0     0.008090     0.601627     0.365057  Biso 1.000000     H
    H   1.0     0.508114     0.601609     0.365068  Biso 1.000000     H
    H   1.0     0.027204     0.545753     0.124572  Biso 1.000000     H
    H   1.0     0.527197     0.545771     0.124576  Biso 1.000000     H
    H   1.0     0.085433     0.635407     0.105551  Biso 1.000000     H
    H   1.0     0.585430     0.635421     0.105555  Biso 1.000000     H
    H   1.0     0.127525     0.538885     0.135229  Biso 1.000000     H
    H   1.0     0.627518     0.538894     0.135227  Biso 1.000000     H
    H   1.0     0.475659     0.643142     0.648026  Biso 1.000000     H
    H   1.0     0.975644     0.643197     0.648009  Biso 1.000000     H
    H   1.0     0.044774     0.740358     0.565580  Biso 1.000000     H
    H   1.0     0.544805     0.740256     0.565601  Biso 1.000000     H
    H   1.0     0.496413     0.749280     0.447794  Biso 1.000000     H
    H   1.0     0.996345     0.749363     0.447775  Biso 1.000000     H
    H   1.0     0.239730     0.449085     0.342387  Biso 1.000000     H
    H   1.0     0.739683     0.449097     0.342405  Biso 1.000000     H
    H   1.0     0.118705     0.476831     0.407175  Biso 1.000000     H
    H   1.0     0.618665     0.476843     0.407207  Biso 1.000000     H
    H   1.0     0.127610     0.555156     0.517380  Biso 1.000000     H
    H   1.0     0.627586     0.555186     0.517404  Biso 1.000000     H
    H   1.0     0.244797     0.645991     0.891950  Biso 1.000000     H
    H   1.0     0.744785     0.645997     0.891952  Biso 1.000000     H
    H   1.0     0.160255     0.799720     0.884099  Biso 1.000000     H
    H   1.0     0.660239     0.799723     0.884092  Biso 1.000000     H
    H   1.0     0.154359     0.736145     0.644297  Biso 1.000000     H
    H   1.0     0.654361     0.736130     0.644286  Biso 1.000000     H
    H   1.0     0.211296     0.641795     0.648311  Biso 1.000000     H
    H   1.0     0.711277     0.641766     0.648315  Biso 1.000000     H
    H   1.0     0.112456     0.635267     0.663944  Biso 1.000000     H
    H   1.0     0.612436     0.635267     0.663948  Biso 1.000000     H
    H   1.0     0.109303     0.882878     0.789845  Biso 1.000000     H
    H   1.0     0.609298     0.882880     0.789821  Biso 1.000000     H
    H   1.0     0.127651     0.850302     0.705840  Biso 1.000000     H
    H   1.0     0.627636     0.850268     0.705819  Biso 1.000000     H
    H   1.0     0.016314     0.750032     0.708957  Biso 1.000000     H
    H   1.0     0.516294     0.750030     0.708953  Biso 1.000000     H
    H   1.0     0.492643     0.859246     0.718516  Biso 1.000000     H
    H   1.0     0.992631     0.859246     0.718514  Biso 1.000000     H
    H   1.0     0.008435     0.731552     0.837133  Biso 1.000000     H
    H   1.0     0.508441     0.731555     0.837137  Biso 1.000000     H
    H   1.0     0.479390     0.839668     0.843724  Biso 1.000000     H
    H   1.0     0.979370     0.839668     0.843725  Biso 1.000000     H
    H   1.0     0.370039     0.737527     0.847539  Biso 1.000000     H
    H   1.0     0.870010     0.737539     0.847524  Biso 1.000000     H
    H   1.0     0.396061     0.692926     0.769011  Biso 1.000000     H
    H   1.0     0.896033     0.692945     0.768995  Biso 1.000000     H
    H   1.0     0.344915     0.752888     0.665399  Biso 1.000000     H
    H   1.0     0.844887     0.752916     0.665390  Biso 1.000000     H
    H   1.0     0.258090     0.898558     0.635012  Biso 1.000000     H
    H   1.0     0.758038     0.898577     0.635018  Biso 1.000000     H
    H   1.0     0.277563     0.953470     0.875757  Biso 1.000000     H
    H   1.0     0.777545     0.953480     0.875761  Biso 1.000000     H
    H   1.0     0.336977     0.864680     0.894229  Biso 1.000000     H
    H   1.0     0.836959     0.864686     0.894222  Biso 1.000000     H
    H   1.0     0.377737     0.961907     0.864412  Biso 1.000000     H
    H   1.0     0.877720     0.961916     0.864411  Biso 1.000000     H
    H   1.0     0.274747     0.356443     0.147960  Biso 1.000000     H
    H   1.0     0.774715     0.356422     0.147960  Biso 1.000000     H
    H   1.0     0.205321     0.259836     0.065298  Biso 1.000000     H
    H   1.0     0.705294     0.259816     0.065290  Biso 1.000000     H
    H   1.0     0.253056     0.251898     0.947204  Biso 1.000000     H
    H   1.0     0.753036     0.251884     0.947200  Biso 1.000000     H
    H   1.0     0.010732     0.551269     0.842519  Biso 1.000000     H
    H   1.0     0.510735     0.551276     0.842516  Biso 1.000000     H
    H   1.0     0.131579     0.523129     0.907401  Biso 1.000000     H
    H   1.0     0.631583     0.523137     0.907396  Biso 1.000000     H
    H   1.0     0.122343     0.444610     0.017462  Biso 1.000000     H
    H   1.0     0.622350     0.444616     0.017456  Biso 1.000000     H
    H   1.0     0.005430     0.354373     0.391945  Biso 1.000000     H
    H   1.0     0.505286     0.354412     0.391975  Biso 1.000000     H
    H   1.0     0.090112     0.200735     0.384035  Biso 1.000000     H
    H   1.0     0.589827     0.200679     0.384220  Biso 1.000000     H
    H   1.0     0.095735     0.263942     0.144228  Biso 1.000000     H
    H   1.0     0.595798     0.263758     0.144361  Biso 1.000000     H
    H   1.0     0.038840     0.358338     0.148259  Biso 1.000000     H
    H   1.0     0.538934     0.358178     0.148350  Biso 1.000000     H
    H   1.0     0.137691     0.364805     0.163899  Biso 1.000000     H
    H   1.0     0.637777     0.364623     0.164012  Biso 1.000000     H
    H   1.0     0.140839     0.117348     0.289567  Biso 1.000000     H
    H   1.0     0.640796     0.117282     0.289949  Biso 1.000000     H
    H   1.0     0.122608     0.150124     0.205603  Biso 1.000000     H
    H   1.0     0.622543     0.149805     0.205944  Biso 1.000000     H
    H   1.0     0.233996     0.250311     0.209040  Biso 1.000000     H
    H   1.0     0.733900     0.250089     0.209216  Biso 1.000000     H
    H   1.0     0.257586     0.141061     0.218436  Biso 1.000000     H
    H   1.0     0.757493     0.140845     0.218614  Biso 1.000000     H
    H   1.0     0.241660     0.268579     0.337255  Biso 1.000000     H
    H   1.0     0.741742     0.268392     0.337433  Biso 1.000000     H
    H   1.0     0.270627     0.160429     0.343688  Biso 1.000000     H
    H   1.0     0.770774     0.160260     0.343838  Biso 1.000000     H
    H   1.0     0.380036     0.262518     0.347782  Biso 1.000000     H
    H   1.0     0.880116     0.262404     0.347835  Biso 1.000000     H
    H   1.0     0.354156     0.307202     0.269288  Biso 1.000000     H
    H   1.0     0.854140     0.307091     0.269370  Biso 1.000000     H
    H   1.0     0.405180     0.247066     0.165570  Biso 1.000000     H
    H   1.0     0.904925     0.246913     0.165551  Biso 1.000000     H
    H   1.0     0.491948     0.101317     0.135136  Biso 1.000000     H
    H   1.0     0.991805     0.101275     0.135027  Biso 1.000000     H
    H   1.0     0.472707     0.046868     0.375919  Biso 1.000000     H
    H   1.0     0.973230     0.046695     0.375736  Biso 1.000000     H
    H   1.0     0.413269     0.135674     0.394380  Biso 1.000000     H
    H   1.0     0.914175     0.135753     0.394472  Biso 1.000000     H
    H   1.0     0.372515     0.038352     0.364688  Biso 1.000000     H
    H   1.0     0.872998     0.038566     0.364965  Biso 1.000000     H
    C   1.0     0.144241     0.042125     0.876739  Biso 1.000000     C
    C   1.0     0.644232     0.042125     0.876770  Biso 1.000000     C
    C   1.0     0.103791     0.098668     0.927445  Biso 1.000000     C
    C   1.0     0.603767     0.098662     0.927473  Biso 1.000000     C
    C   1.0     0.042022     0.147486     0.905251  Biso 1.000000     C
    C   1.0     0.542007     0.147486     0.905269  Biso 1.000000     C
    C   1.0     0.003725     0.200951     0.950154  Biso 1.000000     C
    C   1.0     0.503707     0.200956     0.950168  Biso 1.000000     C
    C   1.0     0.029984     0.205248     0.016594  Biso 1.000000     C
    C   1.0     0.529949     0.205247     0.016613  Biso 1.000000     C
    C   1.0     0.124524     0.105521    -0.003965  Biso 1.000000     C
    C   1.0     0.624480     0.105506    -0.003932  Biso 1.000000     C
    C   1.0     0.192519     0.060653     0.023571  Biso 1.000000     C
    C   1.0     0.692463     0.060629     0.023616  Biso 1.000000     C
    C   1.0     0.190938     0.013284     0.084501  Biso 1.000000     C
    C   1.0     0.690856     0.013253     0.084544  Biso 1.000000     C
    C   1.0     0.260215     0.983636     0.109927  Biso 1.000000     C
    C   1.0     0.760125     0.983592     0.109978  Biso 1.000000     C
    C   1.0     0.326939     0.998903     0.074358  Biso 1.000000     C
    C   1.0     0.826859     0.998847     0.074418  Biso 1.000000     C
    C   1.0     0.322039     0.043598     0.013363  Biso 1.000000     C
    C   1.0     0.821982     0.043553     0.013427  Biso 1.000000     C
    C   1.0     0.118373     0.990647     0.120953  Biso 1.000000     C
    C   1.0     0.618264     0.990624     0.120965  Biso 1.000000     C
    C   1.0     0.284295     0.176513     0.650271  Biso 1.000000     C
    C   1.0     0.784263     0.176475     0.650267  Biso 1.000000     C
    C   1.0     0.326518     0.250390     0.653204  Biso 1.000000     C
    C   1.0     0.826493     0.250349     0.653191  Biso 1.000000     C
    C   1.0     0.322542     0.190460     0.755799  Biso 1.000000     C
    C   1.0     0.822519     0.190437     0.755792  Biso 1.000000     C
    C   1.0     0.336953     0.175402     0.828762  Biso 1.000000     C
    C   1.0     0.836937     0.175391     0.828755  Biso 1.000000     C
    C   1.0     0.397247     0.329018     0.746262  Biso 1.000000     C
    C   1.0     0.897222     0.328997     0.746242  Biso 1.000000     C
    C   1.0     0.480281     0.304406     0.755873  Biso 1.000000     C
    C   1.0     0.980259     0.304401     0.755864  Biso 1.000000     C
    C   1.0     0.021732     0.283154     0.690096  Biso 1.000000     C
    C   1.0     0.521718     0.283160     0.690098  Biso 1.000000     C
    C   1.0     0.103126     0.252326     0.700780  Biso 1.000000     C
    C   1.0     0.603110     0.252325     0.700774  Biso 1.000000     C
    C   1.0     0.171414     0.308307     0.804436  Biso 1.000000     C
    C   1.0     0.671406     0.308300     0.804428  Biso 1.000000     C
    C   1.0     0.214562     0.379219     0.818387  Biso 1.000000     C
    C   1.0     0.714552     0.379214     0.818380  Biso 1.000000     C
    C   1.0     0.181703     0.388348     0.711013  Biso 1.000000     C
    C   1.0     0.681691     0.388344     0.711006  Biso 1.000000     C
    C   1.0     0.172402     0.418477     0.640359  Biso 1.000000     C
    C   1.0     0.672386     0.418478     0.640354  Biso 1.000000     C
    C   1.0     0.106737     0.957959     0.375924  Biso 1.000000     C
    C   1.0     0.605826     0.957954     0.376707  Biso 1.000000     C
    C   1.0     0.146792     0.901584     0.426959  Biso 1.000000     C
    C   1.0     0.646268     0.901442     0.427381  Biso 1.000000     C
    C   1.0     0.208541     0.852568     0.404936  Biso 1.000000     C
    C   1.0     0.708049     0.852650     0.405136  Biso 1.000000     C
    C   1.0     0.246503     0.798940     0.449890  Biso 1.000000     C
    C   1.0     0.746284     0.799095     0.449965  Biso 1.000000     C
    C   1.0     0.219953     0.794705     0.516229  Biso 1.000000     C
    C   1.0     0.719925     0.794656     0.516357  Biso 1.000000     C
    C   1.0     0.125809     0.894852     0.495481  Biso 1.000000     C
    C   1.0     0.625467     0.894495     0.495930  Biso 1.000000     C
    C   1.0     0.057901     0.939930     0.523014  Biso 1.000000     C
    C   1.0     0.557508     0.939430     0.523512  Biso 1.000000     C
    C   1.0     0.059455     0.986836     0.584222  Biso 1.000000     C
    C   1.0     0.559099     0.986644     0.584556  Biso 1.000000     C
    C   1.0     0.489833     0.016316     0.610020  Biso 1.000000     C
    C   1.0     0.990130     0.016252     0.609792  Biso 1.000000     C
    C   1.0     0.423103     0.001148     0.574425  Biso 1.000000     C
    C   1.0     0.923413     0.001243     0.574129  Biso 1.000000     C
    C   1.0     0.427999     0.956624     0.513318  Biso 1.000000     C
    C   1.0     0.928368     0.957203     0.512815  Biso 1.000000     C
    C   1.0     0.132020     0.009315     0.620781  Biso 1.000000     C
    C   1.0     0.631700     0.009261     0.620973  Biso 1.000000     C
    C   1.0     0.465805     0.823300     0.150255  Biso 1.000000     C
    C   1.0     0.965760     0.823305     0.150211  Biso 1.000000     C
    C   1.0     0.423621     0.749400     0.153236  Biso 1.000000     C
    C   1.0     0.923595     0.749391     0.153217  Biso 1.000000     C
    C   1.0     0.427543     0.809569     0.255791  Biso 1.000000     C
    C   1.0     0.927493     0.809632     0.255748  Biso 1.000000     C
    C   1.0     0.413125     0.824805     0.328742  Biso 1.000000     C
    C   1.0     0.913056     0.824886     0.328696  Biso 1.000000     C
    C   1.0     0.352906     0.670941     0.246342  Biso 1.000000     C
    C   1.0     0.852884     0.670980     0.246350  Biso 1.000000     C
    C   1.0     0.269851     0.695506     0.255909  Biso 1.000000     C
    C   1.0     0.769832     0.695556     0.255927  Biso 1.000000     C
    C   1.0     0.228459     0.716628     0.190108  Biso 1.000000     C
    C   1.0     0.728442     0.716663     0.190123  Biso 1.000000     C
    C   1.0     0.147073     0.747531     0.200743  Biso 1.000000     C
    C   1.0     0.647054     0.747557     0.200749  Biso 1.000000     C
    C   1.0     0.078701     0.691870     0.304427  Biso 1.000000     C
    C   1.0     0.578700     0.691873     0.304434  Biso 1.000000     C
    C   1.0     0.035540     0.621008     0.318440  Biso 1.000000     C
    C   1.0     0.535556     0.620999     0.318449  Biso 1.000000     C
    C   1.0     0.068462     0.611570     0.211086  Biso 1.000000     C
    C   1.0     0.568464     0.611578     0.211090  Biso 1.000000     C
    C   1.0     0.077871     0.581186     0.140487  Biso 1.000000     C
    C   1.0     0.577867     0.581198     0.140490  Biso 1.000000     C
    C   1.0     0.356771     0.542038     0.624134  Biso 1.000000     C
    C   1.0     0.856768     0.542058     0.624127  Biso 1.000000     C
    C   1.0     0.396870     0.598385     0.573095  Biso 1.000000     C
    C   1.0     0.896851     0.598428     0.573086  Biso 1.000000     C
    C   1.0     0.458673     0.647374     0.595096  Biso 1.000000     C
    C   1.0     0.958647     0.647434     0.595082  Biso 1.000000     C
    C   1.0     0.496707     0.700927     0.550114  Biso 1.000000     C
    C   1.0     0.996655     0.701017     0.550101  Biso 1.000000     C
    C   1.0     0.470138     0.705168     0.483784  Biso 1.000000     C
    C   1.0     0.970075     0.705257     0.483775  Biso 1.000000     C
    C   1.0     0.375867     0.605115     0.504583  Biso 1.000000     C
    C   1.0     0.875836     0.605161     0.504575  Biso 1.000000     C
    C   1.0     0.307917     0.560016     0.477098  Biso 1.000000     C
    C   1.0     0.807885     0.560051     0.477097  Biso 1.000000     C
    C   1.0     0.309396     0.513154     0.415868  Biso 1.000000     C
    C   1.0     0.809357     0.513171     0.415875  Biso 1.000000     C
    C   1.0     0.240070     0.483701     0.390355  Biso 1.000000     C
    C   1.0     0.740027     0.483721     0.390371  Biso 1.000000     C
    C   1.0     0.173381     0.498699     0.426053  Biso 1.000000     C
    C   1.0     0.673343     0.498716     0.426077  Biso 1.000000     C
    C   1.0     0.178403     0.542710     0.487371  Biso 1.000000     C
    C   1.0     0.678374     0.542735     0.487391  Biso 1.000000     C
    C   1.0     0.381913     0.490696     0.379262  Biso 1.000000     C
    C   1.0     0.881864     0.490704     0.379259  Biso 1.000000     C
    C   1.0     0.215958     0.676722     0.849965  Biso 1.000000     C
    C   1.0     0.715948     0.676725     0.849965  Biso 1.000000     C
    C   1.0     0.173888     0.750663     0.847026  Biso 1.000000     C
    C   1.0     0.673876     0.750664     0.847021  Biso 1.000000     C
    C   1.0     0.177667     0.690529     0.744450  Biso 1.000000     C
    C   1.0     0.677655     0.690522     0.744448  Biso 1.000000     C
    C   1.0     0.163202     0.675339     0.671498  Biso 1.000000     C
    C   1.0     0.663191     0.675326     0.671498  Biso 1.000000     C
    C   1.0     0.103250     0.829268     0.754035  Biso 1.000000     C
    C   1.0     0.603239     0.829258     0.754021  Biso 1.000000     C
    C   1.0     0.020208     0.804747     0.744218  Biso 1.000000     C
    C   1.0     0.520195     0.804743     0.744216  Biso 1.000000     C
    C   1.0     0.478620     0.783303     0.809870  Biso 1.000000     C
    C   1.0     0.978598     0.783306     0.809867  Biso 1.000000     C
    C   1.0     0.397250     0.752431     0.798997  Biso 1.000000     C
    C   1.0     0.897226     0.752447     0.798985  Biso 1.000000     C
    C   1.0     0.328790     0.808277     0.695455  Biso 1.000000     C
    C   1.0     0.828769     0.808308     0.695446  Biso 1.000000     C
    C   1.0     0.285632     0.879140     0.681569  Biso 1.000000     C
    C   1.0     0.785605     0.879170     0.681565  Biso 1.000000     C
    C   1.0     0.318846     0.888516     0.788860  Biso 1.000000     C
    C   1.0     0.818822     0.888536     0.788856  Biso 1.000000     C
    C   1.0     0.328512     0.918870     0.859441  Biso 1.000000     C
    C   1.0     0.828493     0.918881     0.859439  Biso 1.000000     C
    C   1.0     0.393326     0.457979     0.124141  Biso 1.000000     C
    C   1.0     0.893283     0.457978     0.124143  Biso 1.000000     C
    C   1.0     0.353222     0.401738     0.072999  Biso 1.000000     C
    C   1.0     0.853183     0.401735     0.073000  Biso 1.000000     C
    C   1.0     0.291520     0.352582     0.094955  Biso 1.000000     C
    C   1.0     0.791490     0.352563     0.094955  Biso 1.000000     C
    C   1.0     0.253318     0.299321     0.049834  Biso 1.000000     C
    C   1.0     0.753291     0.299304     0.049830  Biso 1.000000     C
    C   1.0     0.279550     0.295660     0.983362  Biso 1.000000     C
    C   1.0     0.779526     0.295647     0.983359  Biso 1.000000     C
    C   1.0     0.374016     0.395438     0.000000  Biso 1.000000     C
    C   1.0     0.873985     0.395434     0.000000  Biso 1.000000     C
    C   1.0     0.442082     0.440400     0.977000  Biso 1.000000     C
    C   1.0     0.942051     0.440401     0.977005  Biso 1.000000     C
    C   1.0     0.440807     0.487382     0.915858  Biso 1.000000     C
    C   1.0     0.940779     0.487376     0.915860  Biso 1.000000     C
    C   1.0     0.010234     0.516598     0.890437  Biso 1.000000     C
    C   1.0     0.510238     0.516600     0.890431  Biso 1.000000     C
    C   1.0     0.076835     0.501364     0.926183  Biso 1.000000     C
    C   1.0     0.576839     0.501371     0.926179  Biso 1.000000     C
    C   1.0     0.071625     0.457262     0.987413  Biso 1.000000     C
    C   1.0     0.571631     0.457268     0.987409  Biso 1.000000     C
    C   1.0     0.368426     0.510277     0.879254  Biso 1.000000     C
    C   1.0     0.868398     0.510272     0.879256  Biso 1.000000     C
    C   1.0     0.034210     0.323598     0.349917  Biso 1.000000     C
    C   1.0     0.534109     0.323593     0.349991  Biso 1.000000     C
    C   1.0     0.076344     0.249690     0.346961  Biso 1.000000     C
    C   1.0     0.576203     0.249654     0.347116  Biso 1.000000     C
    C   1.0     0.072448     0.309672     0.244385  Biso 1.000000     C
    C   1.0     0.572476     0.309566     0.244502  Biso 1.000000     C
    C   1.0     0.086913     0.324786     0.171436  Biso 1.000000     C
    C   1.0     0.586990     0.324618     0.171551  Biso 1.000000     C
    C   1.0     0.146950     0.171026     0.253871  Biso 1.000000     C
    C   1.0     0.646901     0.170866     0.254163  Biso 1.000000     C
    C   1.0     0.230010     0.195538     0.244197  Biso 1.000000     C
    C   1.0     0.729967     0.195337     0.244398  Biso 1.000000     C
    C   1.0     0.271494     0.216847     0.309936  Biso 1.000000     C
    C   1.0     0.771558     0.216676     0.310079  Biso 1.000000     C
    C   1.0     0.352894     0.247670     0.299191  Biso 1.000000     C
    C   1.0     0.852940     0.247547     0.299261  Biso 1.000000     C
    C   1.0     0.421307     0.191707     0.195614  Biso 1.000000     C
    C   1.0     0.921185     0.191602     0.195592  Biso 1.000000     C
    C   1.0     0.464430     0.120803     0.181705  Biso 1.000000     C
    C   1.0     0.964364     0.120757     0.181632  Biso 1.000000     C
    C   1.0     0.431300     0.111587     0.289021  Biso 1.000000     C
    C   1.0     0.931545     0.111597     0.289021  Biso 1.000000     C
    C   1.0     0.421720     0.081394     0.359631  Biso 1.000000     C
    C   1.0     0.922280     0.081449     0.359678  Biso 1.000000     C
    N   1.0     0.281756     0.139820     0.714316  Biso 1.000000     N
    N   1.0     0.781725     0.139794     0.714316  Biso 1.000000     N
    N   1.0     0.350404     0.258453     0.719799  Biso 1.000000     N
    N   1.0     0.850386     0.258421     0.719783  Biso 1.000000     N
    N   1.0     0.221010     0.428497     0.760010  Biso 1.000000     N
    N   1.0     0.720999     0.428493     0.760003  Biso 1.000000     N
    N   1.0     0.150945     0.314627     0.736842  Biso 1.000000     N
    N   1.0     0.650935     0.314621     0.736834  Biso 1.000000     N
    N   1.0     0.256765     0.074412     0.988266  Biso 1.000000     N
    N   1.0     0.756718     0.074385     0.988324  Biso 1.000000     N
    N   1.0     0.088968     0.159189     0.039510  Biso 1.000000     N
    N   1.0     0.588919     0.159173     0.039540  Biso 1.000000     N
    N   1.0     0.468315     0.860139     0.214279  Biso 1.000000     N
    N   1.0     0.968254     0.860191     0.214217  Biso 1.000000     N
    N   1.0     0.399716     0.741477     0.219834  Biso 1.000000     N
    N   1.0     0.899687     0.741506     0.219817  Biso 1.000000     N
    N   1.0     0.029110     0.571570     0.260099  Biso 1.000000     N
    N   1.0     0.529130     0.571563     0.260107  Biso 1.000000     N
    N   1.0     0.099219     0.685356     0.236848  Biso 1.000000     N
    N   1.0     0.599208     0.685372     0.236852  Biso 1.000000     N
    N   1.0     0.493268     0.925817     0.488178  Biso 1.000000     N
    N   1.0     0.993668     0.926611     0.487563  Biso 1.000000     N
    N   1.0     0.161058     0.841035     0.539011  Biso 1.000000     N
    N   1.0     0.660946     0.840717     0.539327  Biso 1.000000     N
    N   1.0     0.218385     0.639895     0.785931  Biso 1.000000     N
    N   1.0     0.718375     0.639893     0.785932  Biso 1.000000     N
    N   1.0     0.149953     0.758638     0.780447  Biso 1.000000     N
    N   1.0     0.649941     0.758632     0.780442  Biso 1.000000     N
    N   1.0     0.279375     0.928539     0.739945  Biso 1.000000     N
    N   1.0     0.779346     0.928561     0.739945  Biso 1.000000     N
    N   1.0     0.349488     0.814748     0.762991  Biso 1.000000     N
    N   1.0     0.849469     0.814774     0.762981  Biso 1.000000     N
    N   1.0     0.243733     0.573313     0.512589  Biso 1.000000     N
    N   1.0     0.743707     0.573346     0.512596  Biso 1.000000     N
    N   1.0     0.411166     0.658900     0.461035  Biso 1.000000     N
    N   1.0     0.911113     0.658966     0.461029  Biso 1.000000     N
    N   1.0     0.031718     0.360323     0.285884  Biso 1.000000     N
    N   1.0     0.531722     0.360275     0.285939  Biso 1.000000     N
    N   1.0     0.100227     0.241641     0.280363  Biso 1.000000     N
    N   1.0     0.600181     0.241544     0.280550  Biso 1.000000     N
    N   1.0     0.470714     0.071476     0.240076  Biso 1.000000     N
    N   1.0     0.970862     0.071499     0.240016  Biso 1.000000     N
    N   1.0     0.400670     0.185335     0.263167  Biso 1.000000     N
    N   1.0     0.900727     0.185261     0.263192  Biso 1.000000     N
    N   1.0     0.006188     0.426817     0.012521  Biso 1.000000     N
    N   1.0     0.506197     0.426819     0.012516  Biso 1.000000     N
    N   1.0     0.338449     0.342074     0.960651  Biso 1.000000     N
    N   1.0     0.838425     0.342064     0.960652  Biso 1.000000     N
    O   1.0     0.149413     0.963107     0.885560  Biso 1.000000     O
    O   1.0     0.649409     0.963106     0.885585  Biso 1.000000     O
    O   1.0     0.168795     0.085437     0.824742  Biso 1.000000     O
    O   1.0     0.668797     0.085446     0.824785  Biso 1.000000     O
    O   1.0     0.058289     0.980540     0.088971  Biso 1.000000     O
    O   1.0     0.558215     0.980467     0.088944  Biso 1.000000     O
    O   1.0     0.126267     0.981494     0.186142  Biso 1.000000     O
    O   1.0     0.626099     0.981538     0.186168  Biso 1.000000     O
    O   1.0     0.102968     0.037261     0.383711  Biso 1.000000     O
    O   1.0     0.600733     0.036996     0.385500  Biso 1.000000     O
    O   1.0     0.081041     0.914158     0.324624  Biso 1.000000     O
    O   1.0     0.581175     0.914572     0.324758  Biso 1.000000     O
    O   1.0     0.192142     0.019437     0.588860  Biso 1.000000     O
    O   1.0     0.691754     0.019373     0.588951  Biso 1.000000     O
    O   1.0     0.124079     0.018405     0.685983  Biso 1.000000     O
    O   1.0     0.623868     0.018446     0.686177  Biso 1.000000     O
    O   1.0     0.352991     0.462745     0.616390  Biso 1.000000     O
    O   1.0     0.852994     0.462765     0.616376  Biso 1.000000     O
    O   1.0     0.331091     0.585866     0.675423  Biso 1.000000     O
    O   1.0     0.831090     0.585874     0.675423  Biso 1.000000     O
    O   1.0     0.442065     0.480606     0.411131  Biso 1.000000     O
    O   1.0     0.942020     0.480616     0.411122  Biso 1.000000     O
    O   1.0     0.373902     0.481544     0.314076  Biso 1.000000     O
    O   1.0     0.873838     0.481545     0.314075  Biso 1.000000     O
    O   1.0     0.397078     0.537273     0.116468  Biso 1.000000     O
    O   1.0     0.897053     0.537270     0.116463  Biso 1.000000     O
    O   1.0     0.418972     0.414137     0.175402  Biso 1.000000     O
    O   1.0     0.918912     0.414140     0.175410  Biso 1.000000     O
    O   1.0     0.308559     0.521775     0.911259  Biso 1.000000     O
    O   1.0     0.808530     0.521768     0.911260  Biso 1.000000     O
    O   1.0     0.376273     0.518309     0.813971  Biso 1.000000     O
    O   1.0     0.876248     0.518306     0.813973  Biso 1.000000     O
   Zn   1.0     0.216371     0.037250     0.741613  Biso 1.000000    Zn
   Zn   1.0     0.716300     0.037252     0.741625  Biso 1.000000    Zn
   Zn   1.0     0.033789     0.962703     0.241534  Biso 1.000000    Zn
   Zn   1.0     0.533680     0.962725     0.241626  Biso 1.000000    Zn
   Zn   1.0     0.283845     0.537362     0.758518  Biso 1.000000    Zn
   Zn   1.0     0.783828     0.537363     0.758514  Biso 1.000000    Zn
   Zn   1.0     0.466253     0.462722     0.258509  Biso 1.000000    Zn
   Zn   1.0     0.966201     0.462737     0.258511  Biso 1.000000    Zn
