#======================================================================

# CRYSTAL DATA

#----------------------------------------------------------------------

data_VESTA_phase_1


_pd_phase_name                         MOF
_cell_length_a                         14.80900
_cell_length_b                         21.17500
_cell_length_c                         21.17200
_cell_angle_alpha                      83.04900
_cell_angle_beta                       69.62400
_cell_angle_gamma                      69.64200
_symmetry_space_group_name_H-M         "P 1"
_symmetry_Int_Tables_number            1

loop_
_symmetry_equiv_pos_as_xyz
   "x, y, z"

loop_
   _atom_site_label
   _atom_site_occupancy
   _atom_site_fract_x
   _atom_site_fract_y
   _atom_site_fract_z
   _atom_site_adp_type
   _atom_site_B_iso_or_equiv
   _atom_site_type_symbol
    H   1.0     0.988739     0.928963     0.736187  Biso 1.000000     H
    H   1.0     0.767033     0.043768     0.079739  Biso 1.000000     H
    H   1.0     0.768441     0.944656     0.026030  Biso 1.000000     H
    H   1.0     0.743548     0.066438     0.000000  Biso 1.000000     H
    H   1.0     0.035584     0.934435     0.923874  Biso 1.000000     H
    H   1.0     0.938335     0.865376     0.032126  Biso 1.000000     H
    H   1.0     0.173713     0.911135     0.828434  Biso 1.000000     H
    H   1.0     0.117314    -0.006694     0.709672  Biso 1.000000     H
    H   1.0     0.119603     0.026906     0.781879  Biso 1.000000     H
    H   1.0     0.865589     0.055321     0.006555  Biso 1.000000     H
    H   1.0     0.975017     0.936386     0.034500  Biso 1.000000     H
    H   1.0     0.869532     0.923892     0.099881  Biso 1.000000     H
    H   1.0     0.158360     0.863126     0.702055  Biso 1.000000     H
    H   1.0     0.714153     0.943146     0.819260  Biso 1.000000     H
    H   1.0     0.770212     0.908586     0.702152  Biso 1.000000     H
    H   1.0     0.892348     0.914825     0.685760  Biso 1.000000     H
    H   1.0     0.855397     0.852113     0.742073  Biso 1.000000     H
    H   1.0     0.691450     0.033054     0.733273  Biso 1.000000     H
    H   1.0     0.709251     0.062603     0.802004  Biso 1.000000     H
    H   1.0     0.811311     0.040711     0.724305  Biso 1.000000     H
    H   1.0     0.549506     0.890141     0.206572  Biso 1.000000     H
    H   1.0     0.536699     0.097945     0.184333  Biso 1.000000     H
    H   1.0     0.559195     0.892476     0.322426  Biso 1.000000     H
    H   1.0     0.548900     0.091471     0.300806  Biso 1.000000     H
    H   1.0     0.234721     0.974967     0.723879  Biso 1.000000     H
    H   1.0     0.270883     0.848440     0.721160  Biso 1.000000     H
    H   1.0     0.177770     0.811699     0.772229  Biso 1.000000     H
    H   1.0     0.154654     0.570857     0.764191  Biso 1.000000     H
    H   1.0     0.389827     0.456745     0.420401  Biso 1.000000     H
    H   1.0     0.239102     0.555723     0.474201  Biso 1.000000     H
    H   1.0     0.311292     0.433905     0.498385  Biso 1.000000     H
    H   1.0     0.393961     0.565857     0.576708  Biso 1.000000     H
    H   1.0     0.335920     0.635081     0.468369  Biso 1.000000     H
    H   1.0     0.413554     0.589059     0.672347  Biso 1.000000     H
    H   1.0     0.320607     0.506643     0.790828  Biso 1.000000     H
    H   1.0     0.428483     0.473226     0.718706  Biso 1.000000     H
    H   1.0     0.427032     0.445094     0.493585  Biso 1.000000     H
    H   1.0     0.445671     0.564131     0.466032  Biso 1.000000     H
    H   1.0     0.393068     0.576637     0.400537  Biso 1.000000     H
    H   1.0     0.224305     0.636817     0.798595  Biso 1.000000     H
    H   1.0     0.977422     0.556448     0.680695  Biso 1.000000     H
    H   1.0     0.882055     0.590938     0.797791  Biso 1.000000     H
    H   1.0     0.993840     0.585024     0.814337  Biso 1.000000     H
    H   1.0     0.950475     0.647609     0.757960  Biso 1.000000     H
    H   1.0     0.958672     0.466483     0.766552  Biso 1.000000     H
    H   1.0     0.074646     0.437105     0.698024  Biso 1.000000     H
    H   1.0     0.076909     0.459127     0.775882  Biso 1.000000     H
    H   1.0     0.146975     0.609423     0.293428  Biso 1.000000     H
    H   1.0     0.318124     0.401560     0.315998  Biso 1.000000     H
    H   1.0     0.274657     0.606888     0.177686  Biso 1.000000     H
    H   1.0     0.440158     0.407814     0.199604  Biso 1.000000     H
    H   1.0     0.433693     0.525145     0.776944  Biso 1.000000     H
    H   1.0     0.341136     0.651560     0.779770  Biso 1.000000     H
    H   1.0     0.262528     0.688368     0.728571  Biso 1.000000     H
    H   1.0     0.725586     0.264031     0.428923  Biso 1.000000     H
    H   1.0     0.846418     0.920512     0.543581  Biso 1.000000     H
    H   1.0     0.794456     0.974162     0.444475  Biso 1.000000     H
    H   1.0     0.745262    -0.001460     0.566301  Biso 1.000000     H
    H   1.0     0.959586     0.076574     0.434266  Biso 1.000000     H
    H   1.0     0.970374     0.968192     0.365164  Biso 1.000000     H
    H   1.0     0.000000     0.172130     0.410915  Biso 1.000000     H
    H   1.0     0.827601     0.290698     0.493246  Biso 1.000000     H
    H   1.0     0.902034     0.218589     0.526749  Biso 1.000000     H
    H   1.0     0.872141     0.993670     0.555161  Biso 1.000000     H
    H   1.0     0.009416     0.965901     0.436175  Biso 1.000000     H
    H   1.0     0.969129     0.900448     0.423681  Biso 1.000000     H
    H   1.0     0.860955     0.298334     0.363042  Biso 1.000000     H
    H   1.0     0.533910     0.180679     0.443307  Biso 1.000000     H
    H   1.0     0.473079     0.297744     0.408797  Biso 1.000000     H
    H   1.0     0.578947     0.314248     0.414824  Biso 1.000000     H
    H   1.0     0.597941     0.257896     0.352174  Biso 1.000000     H
    H   1.0     0.425605     0.266575     0.533279  Biso 1.000000     H
    H   1.0     0.512112     0.198010     0.562723  Biso 1.000000     H
    H   1.0     0.536498     0.275795     0.540739  Biso 1.000000     H
    H   1.0     0.755179     0.793292     0.390440  Biso 1.000000     H
    H   1.0     0.719871     0.815854     0.598282  Biso 1.000000     H
    H   1.0     0.880145     0.677513     0.392924  Biso 1.000000     H
    H   1.0     0.847950     0.699433     0.591967  Biso 1.000000     H
    H   1.0     0.959115     0.276719     0.474793  Biso 1.000000     H
    H   1.0     0.992456     0.279462     0.348319  Biso 1.000000     H
    H   1.0     0.950424     0.228271     0.311530  Biso 1.000000     H
    H   1.0     0.917990     0.236084     0.070708  Biso 1.000000     H
    H   1.0     0.810617     0.579717     0.956352  Biso 1.000000     H
    H   1.0     0.713426     0.525878     0.055310  Biso 1.000000     H
    H   1.0     0.809800     0.501714     0.933509  Biso 1.000000     H
    H   1.0     0.970304     0.423688     0.065555  Biso 1.000000     H
    H   1.0     0.804219     0.531873     0.134737  Biso 1.000000     H
    H   1.0     0.085139     0.328236     0.088885  Biso 1.000000     H
    H   1.0     0.110703     0.209671     0.000000  Biso 1.000000     H
    H   1.0     0.146410     0.281922     0.972993  Biso 1.000000     H
    H   1.0     0.920706     0.506586     0.944713  Biso 1.000000     H
    H   1.0     0.911662     0.534315     0.063802  Biso 1.000000     H
    H   1.0     0.793765     0.599682     0.076296  Biso 1.000000     H
    H   1.0     0.022118     0.201784     0.136507  Biso 1.000000     H
    H   1.0     0.657632     0.319241     0.056412  Biso 1.000000     H
    H   1.0     0.679009     0.202219     0.091111  Biso 1.000000     H
    H   1.0     0.807318     0.185776     0.084980  Biso 1.000000     H
    H   1.0     0.707926     0.242185     0.147605  Biso 1.000000     H
    H   1.0     0.724389     0.233139     0.966631  Biso 1.000000     H
    H   1.0     0.771806     0.301762     0.937007  Biso 1.000000     H
    H   1.0     0.851863     0.224090     0.959048  Biso 1.000000     H
    H   1.0     0.440136     0.706624     0.109766  Biso 1.000000     H
    H   1.0     0.634279     0.684294     0.901972  Biso 1.000000     H
    H   1.0     0.452195     0.822452     0.107429  Biso 1.000000     H
    H   1.0     0.640112     0.800733     0.908452  Biso 1.000000     H
    H   1.0     0.209791     0.223833     0.024851  Biso 1.000000     H
    H   1.0     0.119928     0.220865     0.151353  Biso 1.000000     H
    H   1.0    -0.009778     0.271835     0.188139  Biso 1.000000     H
    H   1.0     0.011241     0.071046     0.263829  Biso 1.000000     H
    H   1.0     0.232947     0.956234     0.920279  Biso 1.000000     H
    H   1.0     0.231543     0.055346     0.973987  Biso 1.000000     H
    H   1.0     0.256431     0.933565    -0.001700  Biso 1.000000     H
    H   1.0     0.964398     0.065574     0.076142  Biso 1.000000     H
    H   1.0     0.061651     0.134629     0.967890  Biso 1.000000     H
    H   1.0     0.826268     0.088874     0.171581  Biso 1.000000     H
    H   1.0     0.882661     0.000000     0.290349  Biso 1.000000     H
    H   1.0     0.880371     0.973107     0.218144  Biso 1.000000     H
    H   1.0     0.134389     0.944685     0.993464  Biso 1.000000     H
    H   1.0     0.024964     0.063620     0.965517  Biso 1.000000     H
    H   1.0     0.130452     0.076112     0.900136  Biso 1.000000     H
    H   1.0     0.841620     0.136891     0.297957  Biso 1.000000     H
    H   1.0     0.285829     0.056858     0.180758  Biso 1.000000     H
    H   1.0     0.229767     0.091419     0.297866  Biso 1.000000     H
    H   1.0     0.107630     0.085184     0.314256  Biso 1.000000     H
    H   1.0     0.144586     0.147893     0.257942  Biso 1.000000     H
    H   1.0     0.308526     0.966951     0.266747  Biso 1.000000     H
    H   1.0     0.290723     0.937401     0.198017  Biso 1.000000     H
    H   1.0     0.188663     0.959297     0.275715  Biso 1.000000     H
    H   1.0     0.450492     0.109856     0.793443  Biso 1.000000     H
    H   1.0     0.463291     0.902053     0.815686  Biso 1.000000     H
    H   1.0     0.440802     0.107520     0.677590  Biso 1.000000     H
    H   1.0     0.451089     0.908526     0.699213  Biso 1.000000     H
    H   1.0     0.765255     0.025050     0.276141  Biso 1.000000     H
    H   1.0     0.729098     0.151577     0.278851  Biso 1.000000     H
    H   1.0     0.822216     0.188314     0.227779  Biso 1.000000     H
    H   1.0     0.845322     0.429157     0.235823  Biso 1.000000     H
    H   1.0     0.610152     0.543260     0.579613  Biso 1.000000     H
    H   1.0     0.760877     0.444283     0.525814  Biso 1.000000     H
    H   1.0     0.688688     0.566100     0.501630  Biso 1.000000     H
    H   1.0     0.606016     0.434152     0.423305  Biso 1.000000     H
    H   1.0     0.664060     0.364924     0.531643  Biso 1.000000     H
    H   1.0     0.586423     0.410953     0.327665  Biso 1.000000     H
    H   1.0     0.679373     0.493368     0.209185  Biso 1.000000     H
    H   1.0     0.571496     0.526786     0.281306  Biso 1.000000     H
    H   1.0     0.572947     0.554911     0.506429  Biso 1.000000     H
    H   1.0     0.554309     0.435874     0.533981  Biso 1.000000     H
    H   1.0     0.606911     0.423368     0.599476  Biso 1.000000     H
    H   1.0     0.775674     0.363194     0.201419  Biso 1.000000     H
    H   1.0     0.022558     0.443560     0.319319  Biso 1.000000     H
    H   1.0     0.117922     0.409077     0.202221  Biso 1.000000     H
    H   1.0     0.006136     0.414994     0.185674  Biso 1.000000     H
    H   1.0     0.049504     0.352404     0.242048  Biso 1.000000     H
    H   1.0     0.041303     0.533529     0.233467  Biso 1.000000     H
    H   1.0     0.925330     0.562904     0.301998  Biso 1.000000     H
    H   1.0     0.923065     0.540887     0.224137  Biso 1.000000     H
    H   1.0     0.853004     0.390581     0.706596  Biso 1.000000     H
    H   1.0     0.681860     0.598443     0.684017  Biso 1.000000     H
    H   1.0     0.725318     0.393120     0.822336  Biso 1.000000     H
    H   1.0     0.559821     0.592193     0.800410  Biso 1.000000     H
    H   1.0     0.566286     0.474867     0.223068  Biso 1.000000     H
    H   1.0     0.658842     0.348453     0.220242  Biso 1.000000     H
    H   1.0     0.737448     0.311644     0.271442  Biso 1.000000     H
    H   1.0     0.274399     0.735974     0.571093  Biso 1.000000     H
    H   1.0     0.153582     0.079492     0.456433  Biso 1.000000     H
    H   1.0     0.205538     0.025842     0.555541  Biso 1.000000     H
    H   1.0     0.254737     0.000000     0.433715  Biso 1.000000     H
    H   1.0     0.040406     0.923433     0.565747  Biso 1.000000     H
    H   1.0     0.029617     0.031815     0.634849  Biso 1.000000     H
    H   1.0    -0.002475     0.827880     0.589098  Biso 1.000000     H
    H   1.0     0.172383     0.709309     0.506768  Biso 1.000000     H
    H   1.0     0.097953     0.781419     0.473265  Biso 1.000000     H
    H   1.0     0.127858     0.006334     0.444852  Biso 1.000000     H
    H   1.0     0.990578     0.034106     0.563836  Biso 1.000000     H
    H   1.0     0.030867     0.099558     0.576332  Biso 1.000000     H
    H   1.0     0.139026     0.701674     0.636973  Biso 1.000000     H
    H   1.0     0.466078     0.819322     0.556713  Biso 1.000000     H
    H   1.0     0.526906     0.702256     0.591220  Biso 1.000000     H
    H   1.0     0.421038     0.685754     0.585189  Biso 1.000000     H
    H   1.0     0.402043     0.742103     0.647842  Biso 1.000000     H
    H   1.0     0.574385     0.733428     0.466739  Biso 1.000000     H
    H   1.0     0.487878     0.801995     0.437296  Biso 1.000000     H
    H   1.0     0.463493     0.724210     0.459277  Biso 1.000000     H
    H   1.0     0.244827     0.206713     0.609574  Biso 1.000000     H
    H   1.0     0.280122     0.184141     0.401736  Biso 1.000000     H
    H   1.0     0.119863     0.322492     0.607087  Biso 1.000000     H
    H   1.0     0.152046     0.300563     0.408049  Biso 1.000000     H
    H   1.0     0.040869     0.723291     0.525221  Biso 1.000000     H
    H   1.0     0.007525     0.720548     0.651694  Biso 1.000000     H
    H   1.0     0.049559     0.771737     0.688485  Biso 1.000000     H
    H   1.0     0.081989     0.763927     0.929309  Biso 1.000000     H
    H   1.0     0.189362     0.420293     0.043664  Biso 1.000000     H
    H   1.0     0.286552     0.474134     0.944708  Biso 1.000000     H
    H   1.0     0.190177     0.498296     0.066509  Biso 1.000000     H
    H   1.0     0.029674     0.576323     0.934463  Biso 1.000000     H
    H   1.0     0.195760     0.468140     0.865279  Biso 1.000000     H
    H   1.0     0.914837     0.671776     0.911135  Biso 1.000000     H
    H   1.0     0.889280     0.790343    -0.006355  Biso 1.000000     H
    H   1.0     0.853570     0.718093     0.027026  Biso 1.000000     H
    H   1.0     0.079272     0.493423     0.055304  Biso 1.000000     H
    H   1.0     0.088317     0.465696     0.936214  Biso 1.000000     H
    H   1.0     0.206214     0.400330     0.923720  Biso 1.000000     H
    H   1.0     0.977863     0.798225     0.863507  Biso 1.000000     H
    H   1.0     0.342346     0.680769     0.943607  Biso 1.000000     H
    H   1.0     0.320976     0.797789     0.908900  Biso 1.000000     H
    H   1.0     0.192668     0.814233     0.915029  Biso 1.000000     H
    H   1.0     0.292060     0.757819     0.852409  Biso 1.000000     H
    H   1.0     0.275589     0.766877     0.033383  Biso 1.000000     H
    H   1.0     0.228169     0.698256     0.063010  Biso 1.000000     H
    H   1.0     0.148115     0.775926     0.040965  Biso 1.000000     H
    H   1.0     0.559864     0.293378     0.890258  Biso 1.000000     H
    H   1.0     0.365710     0.315711     0.098050  Biso 1.000000     H
    H   1.0     0.547812     0.177548     0.892597  Biso 1.000000     H
    H   1.0     0.359884     0.199270     0.091571  Biso 1.000000     H
    H   1.0     0.790189     0.776182     0.975167  Biso 1.000000     H
    H   1.0     0.880051     0.779145     0.848664  Biso 1.000000     H
    H   1.0     0.000000     0.728173     0.811878  Biso 1.000000     H
    C   1.0     0.704112     0.969979     0.930568  Biso 1.000000     C
    C   1.0     0.815692     0.954765     0.894228  Biso 1.000000     C
    C   1.0     0.880119     0.950365     0.931519  Biso 1.000000     C
    C   1.0     0.983988     0.938130     0.896239  Biso 1.000000     C
    C   1.0     0.024379     0.930723     0.826110  Biso 1.000000     C
    C   1.0     0.958064     0.935144     0.790795  Biso 1.000000     C
    C   1.0     0.853788     0.946920     0.823634  Biso 1.000000     C
    C   1.0     0.836313     0.960948     0.007564  Biso 1.000000     C
    C   1.0     0.800712     0.036217     0.024856  Biso 1.000000     C
    C   1.0     0.909268     0.919060     0.045228  Biso 1.000000     C
    C   1.0     0.137049     0.919492     0.789431  Biso 1.000000     C
    C   1.0     0.153166     0.982416     0.749096  Biso 1.000000     C
    C   1.0     0.188566     0.857005     0.743862  Biso 1.000000     C
    C   1.0     0.782049     0.954093     0.784252  Biso 1.000000     C
    C   1.0     0.827895     0.904371     0.725405  Biso 1.000000     C
    C   1.0     0.746190     0.027094     0.759587  Biso 1.000000     C
    C   1.0     0.531056     0.995862     0.119885  Biso 1.000000     C
    C   1.0     0.541569     0.994295     0.186723  Biso 1.000000     C
    C   1.0     0.549180     0.935514     0.226075  Biso 1.000000     C
    C   1.0     0.541917     0.051652     0.213675  Biso 1.000000     C
    C   1.0     0.554837     0.936884     0.289972  Biso 1.000000     C
    C   1.0     0.548521     0.048039     0.277980  Biso 1.000000     C
    C   1.0     0.104896     0.530176     0.569496  Biso 1.000000     C
    C   1.0     0.165016     0.545371     0.605963  Biso 1.000000     C
    C   1.0     0.262166     0.549885     0.568806  Biso 1.000000     C
    C   1.0     0.318571     0.562094     0.604236  Biso 1.000000     C
    C   1.0     0.281594     0.569365     0.674387  Biso 1.000000     C
    C   1.0     0.184599     0.564800     0.709568  Biso 1.000000     C
    C   1.0     0.124928     0.553010     0.676577  Biso 1.000000     C
    C   1.0     0.304746     0.539428     0.492719  Biso 1.000000     C
    C   1.0     0.361356     0.464201     0.475299  Biso 1.000000     C
    C   1.0     0.373439     0.581414     0.455212  Biso 1.000000     C
    C   1.0     0.346357     0.580606     0.711239  Biso 1.000000     C
    C   1.0     0.384904     0.517651     0.751547  Biso 1.000000     C
    C   1.0     0.290107     0.643019     0.756904  Biso 1.000000     C
    C   1.0     0.021210     0.545630     0.715802  Biso 1.000000     C
    C   1.0     0.958596     0.595331     0.774630  Biso 1.000000     C
    C   1.0     0.033648     0.472607     0.740436  Biso 1.000000     C
    C   1.0     0.146744     0.503809     0.380197  Biso 1.000000     C
    C   1.0     0.222519     0.505243     0.313434  Biso 1.000000     C
    C   1.0     0.211134     0.563987     0.274020  Biso 1.000000     C
    C   1.0     0.306696     0.447825     0.286601  Biso 1.000000     C
    C   1.0     0.281963     0.562503     0.210176  Biso 1.000000     C
    C   1.0     0.373916     0.451325     0.222330  Biso 1.000000     C
    C   1.0     0.634998     0.069462     0.469860  Biso 1.000000     C
    C   1.0     0.710268     0.105914     0.454661  Biso 1.000000     C
    C   1.0     0.811859     0.068741     0.450216  Biso 1.000000     C
    C   1.0     0.880490     0.104118     0.437975  Biso 1.000000     C
    C   1.0     0.850877     0.174235     0.430592  Biso 1.000000     C
    C   1.0     0.749399     0.209434     0.435068  Biso 1.000000     C
    C   1.0     0.677925     0.176492     0.446874  Biso 1.000000     C
    C   1.0     0.843885     0.992681     0.460776  Biso 1.000000     C
    C   1.0     0.825479     0.975382     0.536049  Biso 1.000000     C
    C   1.0     0.954365     0.955097     0.418858  Biso 1.000000     C
    C   1.0     0.926895     0.211037     0.419335  Biso 1.000000     C
    C   1.0     0.902792     0.251380     0.482286  Biso 1.000000     C
    C   1.0     0.932881     0.256630     0.356873  Biso 1.000000     C
    C   1.0     0.566917     0.215752     0.454175  Biso 1.000000     C
    C   1.0     0.553958     0.274565     0.404462  Biso 1.000000     C
    C   1.0     0.506600     0.240404     0.527208  Biso 1.000000     C
    C   1.0     0.650252     0.880113     0.496089  Biso 1.000000     C
    C   1.0     0.727281     0.813302     0.494610  Biso 1.000000     C
    C   1.0     0.774170     0.773876     0.435859  Biso 1.000000     C
    C   1.0     0.754358     0.786453     0.552011  Biso 1.000000     C
    C   1.0     0.843415     0.710010     0.437315  Biso 1.000000     C
    C   1.0     0.824955     0.722169     0.548478  Biso 1.000000     C
    C   1.0     0.674324     0.430556     0.029822  Biso 1.000000     C
    C   1.0     0.770775     0.394127     0.044964  Biso 1.000000     C
    C   1.0     0.830801     0.431380     0.049497  Biso 1.000000     C
    C   1.0     0.922434     0.396079     0.061770  Biso 1.000000     C
    C   1.0     0.955382     0.325958     0.069104  Biso 1.000000     C
    C   1.0     0.893511     0.290682     0.064570  Biso 1.000000     C
    C   1.0     0.801005     0.323547     0.052755  Biso 1.000000     C
    C   1.0     0.797505     0.507442     0.039034  Biso 1.000000     C
    C   1.0     0.836821     0.524838     0.963817  Biso 1.000000     C
    C   1.0     0.828676     0.545035     0.081063  Biso 1.000000     C
    C   1.0     0.056856     0.289262     0.080377  Biso 1.000000     C
    C   1.0     0.135682     0.249060     0.017378  Biso 1.000000     C
    C   1.0     0.046161     0.243575     0.142772  Biso 1.000000     C
    C   1.0     0.736372     0.284201     0.045547  Biso 1.000000     C
    C   1.0     0.732518     0.225445     0.095349  Biso 1.000000     C
    C   1.0     0.773244     0.259420     0.972590  Biso 1.000000     C
    C   1.0     0.526885     0.619929     0.004060  Biso 1.000000     C
    C   1.0     0.535916     0.686742     0.005600  Biso 1.000000     C
    C   1.0     0.485015     0.726104     0.064391  Biso 1.000000     C
    C   1.0     0.593401     0.713648     0.948271  Biso 1.000000     C
    C   1.0     0.492071     0.789981     0.063022  Biso 1.000000     C
    C   1.0     0.596451     0.777935     0.951889  Biso 1.000000     C
    C   1.0     0.295873     0.030021     0.069451  Biso 1.000000     C
    C   1.0     0.184291     0.045238     0.105789  Biso 1.000000     C
    C   1.0     0.119864     0.049640     0.068497  Biso 1.000000     C
    C   1.0     0.015994     0.061877     0.103777  Biso 1.000000     C
    C   1.0     0.975602     0.069286     0.173906  Biso 1.000000     C
    C   1.0     0.041917     0.064864     0.209221  Biso 1.000000     C
    C   1.0     0.146194     0.053085     0.176383  Biso 1.000000     C
    C   1.0     0.163669     0.039055     0.992453  Biso 1.000000     C
    C   1.0     0.199268     0.963786     0.975162  Biso 1.000000     C
    C   1.0     0.090716     0.080945     0.954789  Biso 1.000000     C
    C   1.0     0.862930     0.080519     0.210584  Biso 1.000000     C
    C   1.0     0.846810     0.017599     0.250925  Biso 1.000000     C
    C   1.0     0.811415     0.143010     0.256149  Biso 1.000000     C
    C   1.0     0.217931     0.045912     0.215766  Biso 1.000000     C
    C   1.0     0.172084     0.095636     0.274612  Biso 1.000000     C
    C   1.0     0.253786     0.972911     0.240434  Biso 1.000000     C
    C   1.0     0.468933     0.004136     0.880134  Biso 1.000000     C
    C   1.0     0.458422     0.005703     0.813295  Biso 1.000000     C
    C   1.0     0.450813     0.064483     0.773942  Biso 1.000000     C
    C   1.0     0.458072     0.948346     0.786344  Biso 1.000000     C
    C   1.0     0.445157     0.063113     0.710045  Biso 1.000000     C
    C   1.0     0.451469     0.951959     0.722039  Biso 1.000000     C
    C   1.0     0.895090     0.469824     0.430518  Biso 1.000000     C
    C   1.0     0.834965     0.454632     0.394052  Biso 1.000000     C
    C   1.0     0.737814     0.450120     0.431208  Biso 1.000000     C
    C   1.0     0.681408     0.437914     0.395777  Biso 1.000000     C
    C   1.0     0.718384     0.430645     0.325626  Biso 1.000000     C
    C   1.0     0.815379     0.435211     0.290446  Biso 1.000000     C
    C   1.0     0.875052     0.446998     0.323438  Biso 1.000000     C
    C   1.0     0.695234     0.460576     0.507295  Biso 1.000000     C
    C   1.0     0.638624     0.535804     0.524715  Biso 1.000000     C
    C   1.0     0.626541     0.418591     0.544801  Biso 1.000000     C
    C   1.0     0.653621     0.419406     0.288773  Biso 1.000000     C
    C   1.0     0.615076     0.482362     0.248466  Biso 1.000000     C
    C   1.0     0.709871     0.356993     0.243109  Biso 1.000000     C
    C   1.0     0.978769     0.454381     0.284213  Biso 1.000000     C
    C   1.0     0.041382     0.404683     0.225381  Biso 1.000000     C
    C   1.0     0.966327     0.527405     0.259583  Biso 1.000000     C
    C   1.0     0.853239     0.496191     0.619822  Biso 1.000000     C
    C   1.0     0.777462     0.494759     0.686585  Biso 1.000000     C
    C   1.0     0.788845     0.436017     0.726002  Biso 1.000000     C
    C   1.0     0.693286     0.552179     0.713416  Biso 1.000000     C
    C   1.0     0.718014     0.437503     0.789845  Biso 1.000000     C
    C   1.0     0.626064     0.548680     0.777686  Biso 1.000000     C
    C   1.0     0.364995     0.930540     0.530157  Biso 1.000000     C
    C   1.0     0.289723     0.894089     0.545356  Biso 1.000000     C
    C   1.0     0.188133     0.931264     0.549800  Biso 1.000000     C
    C   1.0     0.119500     0.895889     0.562040  Biso 1.000000     C
    C   1.0     0.149111     0.825771     0.569423  Biso 1.000000     C
    C   1.0     0.250589     0.790571     0.564948  Biso 1.000000     C
    C   1.0     0.322064     0.823511     0.553143  Biso 1.000000     C
    C   1.0     0.156109     0.007324     0.539239  Biso 1.000000     C
    C   1.0     0.174520     0.024621     0.463966  Biso 1.000000     C
    C   1.0     0.045629     0.044909     0.581155  Biso 1.000000     C
    C   1.0     0.073091     0.788971     0.580678  Biso 1.000000     C
    C   1.0     0.097193     0.748628     0.517727  Biso 1.000000     C
    C   1.0     0.067102     0.743378     0.643141  Biso 1.000000     C
    C   1.0     0.433071     0.784251     0.545843  Biso 1.000000     C
    C   1.0     0.446028     0.725436     0.595554  Biso 1.000000     C
    C   1.0     0.493390     0.759600     0.472809  Biso 1.000000     C
    C   1.0     0.349746     0.119887     0.503927  Biso 1.000000     C
    C   1.0     0.272719     0.186698     0.505406  Biso 1.000000     C
    C   1.0     0.225835     0.226128     0.564155  Biso 1.000000     C
    C   1.0     0.245639     0.213545     0.448006  Biso 1.000000     C
    C   1.0     0.156590     0.289993     0.562698  Biso 1.000000     C
    C   1.0     0.175043     0.277829     0.451537  Biso 1.000000     C
    C   1.0     0.325652     0.569455     0.970199  Biso 1.000000     C
    C   1.0     0.229202     0.605884     0.955055  Biso 1.000000     C
    C   1.0     0.169177     0.568631     0.950521  Biso 1.000000     C
    C   1.0     0.077544     0.603933     0.938248  Biso 1.000000     C
    C   1.0     0.044596     0.674053     0.930914  Biso 1.000000     C
    C   1.0     0.106467     0.709329     0.935447  Biso 1.000000     C
    C   1.0     0.198973     0.676464     0.947263  Biso 1.000000     C
    C   1.0     0.202473     0.492569     0.960984  Biso 1.000000     C
    C   1.0     0.163157     0.475172     0.036200  Biso 1.000000     C
    C   1.0     0.171303     0.454976     0.918954  Biso 1.000000     C
    C   1.0     0.943122     0.710750     0.919641  Biso 1.000000     C
    C   1.0     0.864298     0.750954     0.982639  Biso 1.000000     C
    C   1.0     0.953818     0.756435     0.857245  Biso 1.000000     C
    C   1.0     0.263607     0.715810     0.954470  Biso 1.000000     C
    C   1.0     0.267466     0.774562     0.904663  Biso 1.000000     C
    C   1.0     0.226734     0.740596     0.027425  Biso 1.000000     C
    C   1.0     0.473099     0.380079     0.995961  Biso 1.000000     C
    C   1.0     0.464076     0.313263     0.994422  Biso 1.000000     C
    C   1.0     0.514983     0.273899     0.935633  Biso 1.000000     C
    C   1.0     0.406591     0.286356     0.051751  Biso 1.000000     C
    C   1.0     0.507930     0.210020     0.937003  Biso 1.000000     C
    C   1.0     0.403545     0.222068     0.048134  Biso 1.000000     C
    N   1.0     0.554209     0.991984     0.316355  Biso 1.000000     N
    N   1.0     0.362343     0.507332     0.183890  Biso 1.000000     N
    N   1.0     0.868949     0.683725     0.492463  Biso 1.000000     N
    N   1.0     0.546348     0.816328     0.007917  Biso 1.000000     N
    N   1.0     0.445781     0.008013     0.683664  Biso 1.000000     N
    N   1.0     0.637633     0.492675     0.816129  Biso 1.000000     N
    N   1.0     0.131053     0.316276     0.507550  Biso 1.000000     N
    N   1.0     0.453652     0.183673     0.992107  Biso 1.000000     N
    O   1.0     0.666838     0.921780     0.950659  Biso 1.000000     O
    O   1.0     0.534354     0.941381     0.096306  Biso 1.000000     O
    O   1.0     0.647463     0.032207     0.941691  Biso 1.000000     O
    O   1.0     0.516967     0.051831     0.086826  Biso 1.000000     O
    O   1.0     0.039838     0.578366     0.549231  Biso 1.000000     O
    O   1.0     0.072321     0.558357     0.403538  Biso 1.000000     O
    O   1.0     0.121117     0.467946     0.558495  Biso 1.000000     O
    O   1.0     0.155193     0.447953     0.413403  Biso 1.000000     O
    O   1.0     0.617818     0.049246     0.421680  Biso 1.000000     O
    O   1.0     0.630110     0.903557     0.441571  Biso 1.000000     O
    O   1.0     0.589391     0.058391     0.532113  Biso 1.000000     O
    O   1.0     0.603256     0.913289     0.551997  Biso 1.000000     O
    O   1.0     0.589132     0.450691     0.078082  Biso 1.000000     O
    O   1.0     0.475958     0.596400     0.058598  Biso 1.000000     O
    O   1.0     0.679489     0.441752     0.967642  Biso 1.000000     O
    O   1.0     0.568400     0.586849     0.948130  Biso 1.000000     O
    O   1.0     0.333148     0.078220     0.049357  Biso 1.000000     O
    O   1.0     0.465636     0.058617     0.903712  Biso 1.000000     O
    O   1.0     0.352522     0.967792     0.058327  Biso 1.000000     O
    O   1.0     0.483021     0.948168     0.913193  Biso 1.000000     O
    O   1.0     0.960140     0.421632     0.450788  Biso 1.000000     O
    O   1.0     0.927661     0.441643     0.596481  Biso 1.000000     O
    O   1.0     0.878864     0.532053     0.441523  Biso 1.000000     O
    O   1.0     0.844792     0.552046     0.586616  Biso 1.000000     O
    O   1.0     0.382173     0.950757     0.578337  Biso 1.000000     O
    O   1.0     0.369888     0.096443     0.558446  Biso 1.000000     O
    O   1.0     0.410606     0.941608     0.467904  Biso 1.000000     O
    O   1.0     0.396740     0.086710     0.448020  Biso 1.000000     O
    O   1.0     0.410843     0.549315     0.921938  Biso 1.000000     O
    O   1.0     0.524025     0.403609     0.941424  Biso 1.000000     O
    O   1.0     0.320488     0.558267     0.032379  Biso 1.000000     O
    O   1.0     0.431577     0.413162     0.051890  Biso 1.000000     O
   Mo   1.0     0.508406     0.947607     0.004539  Biso 1.000000    Mo
   Mo   1.0     0.960981     0.552387     0.495279  Biso 1.000000    Mo
   Mo   1.0     0.512962     0.995329     0.447619  Biso 1.000000    Mo
   Mo   1.0     0.456353     0.504571     0.052418  Biso 1.000000    Mo
   Mo   1.0     0.491581     0.052392     0.995480  Biso 1.000000    Mo
   Mo   1.0     0.039001     0.447611     0.504739  Biso 1.000000    Mo
   Mo   1.0     0.487035     0.004670     0.552398  Biso 1.000000    Mo
   Mo   1.0     0.543623     0.495440     0.947603  Biso 1.000000    Mo
