#======================================================================

# CRYSTAL DATA

#----------------------------------------------------------------------

data_VESTA_phase_1


_pd_phase_name                         MOF
_cell_length_a                         18.59100
_cell_length_b                         14.43000
_cell_length_c                         17.45900
_cell_angle_alpha                      99.03900
_cell_angle_beta                       89.94700
_cell_angle_gamma                      108.70800
_symmetry_space_group_name_H-M         "P 1"
_symmetry_Int_Tables_number            1

loop_
_symmetry_equiv_pos_as_xyz
   "x, y, z"

loop_
   _atom_site_label
   _atom_site_occupancy
   _atom_site_fract_x
   _atom_site_fract_y
   _atom_site_fract_z
   _atom_site_adp_type
   _atom_site_B_iso_or_equiv
   _atom_site_type_symbol
    H   1.0     0.073977     0.250559     0.339421  Biso 1.000000     H
    H   1.0     0.573982     0.250562     0.339421  Biso 1.000000     H
    H   1.0     0.062441     0.269310     0.432191  Biso 1.000000     H
    H   1.0     0.562447     0.269311     0.432190  Biso 1.000000     H
    H   1.0     0.335955     0.477998     0.324784  Biso 1.000000     H
    H   1.0     0.835960     0.477994     0.324786  Biso 1.000000     H
    H   1.0     0.454128     0.596433     0.453727  Biso 1.000000     H
    H   1.0     0.954129     0.596425     0.453733  Biso 1.000000     H
    H   1.0     0.021496     0.709968     0.373561  Biso 1.000000     H
    H   1.0     0.521503     0.709973     0.373550  Biso 1.000000     H
    H   1.0     0.029396     0.565753     0.255169  Biso 1.000000     H
    H   1.0     0.529405     0.565752     0.255166  Biso 1.000000     H
    H   1.0     0.310308     0.275906     0.275968  Biso 1.000000     H
    H   1.0     0.810319     0.275917     0.275958  Biso 1.000000     H
    H   1.0     0.222753     0.136658     0.187430  Biso 1.000000     H
    H   1.0     0.722761     0.136671     0.187419  Biso 1.000000     H
    H   1.0     0.406821     0.013250     0.152675  Biso 1.000000     H
    H   1.0     0.906814     0.013233     0.152687  Biso 1.000000     H
    H   1.0     0.488138     0.161545     0.240015  Biso 1.000000     H
    H   1.0     0.988135     0.161526     0.240028  Biso 1.000000     H
    H   1.0     0.073765     0.824139     0.061009  Biso 1.000000     H
    H   1.0     0.573766     0.824141     0.061010  Biso 1.000000     H
    H   1.0     0.149453     0.975732     0.152803  Biso 1.000000     H
    H   1.0     0.649454     0.975733     0.152805  Biso 1.000000     H
    H   1.0     0.351039     0.942194     0.044195  Biso 1.000000     H
    H   1.0     0.851039     0.942202     0.044190  Biso 1.000000     H
    H   1.0     0.267305     0.789785     0.961913  Biso 1.000000     H
    H   1.0     0.767305     0.789794     0.961906  Biso 1.000000     H
    H   1.0     0.448162     0.748520     0.160360  Biso 1.000000     H
    H   1.0     0.948170     0.748536     0.160371  Biso 1.000000     H
    H   1.0     0.427403     0.730657     0.067660  Biso 1.000000     H
    H   1.0     0.927417     0.730664     0.067669  Biso 1.000000     H
    H   1.0     0.096906     0.521009     0.174832  Biso 1.000000     H
    H   1.0     0.596913     0.521018     0.174832  Biso 1.000000     H
    H   1.0     0.156298     0.402771     0.045679  Biso 1.000000     H
    H   1.0     0.656308     0.402779     0.045681  Biso 1.000000     H
    H   1.0     0.167016     0.289281     0.125953  Biso 1.000000     H
    H   1.0     0.667027     0.289291     0.125957  Biso 1.000000     H
    H   1.0     0.246483     0.433690     0.244358  Biso 1.000000     H
    H   1.0     0.746492     0.433703     0.244360  Biso 1.000000     H
    H   1.0     0.171858     0.723740     0.225138  Biso 1.000000     H
    H   1.0     0.671872     0.723754     0.225132  Biso 1.000000     H
    H   1.0     0.154571     0.863394     0.314160  Biso 1.000000     H
    H   1.0     0.654585     0.863408     0.314155  Biso 1.000000     H
    H   1.0     0.400230     0.985837     0.346427  Biso 1.000000     H
    H   1.0     0.900242     0.985827     0.346452  Biso 1.000000     H
    H   1.0     0.406808     0.837286     0.258753  Biso 1.000000     H
    H   1.0     0.906821     0.837276     0.258778  Biso 1.000000     H
    H   1.0     0.162633     0.176433     0.440779  Biso 1.000000     H
    H   1.0     0.662653     0.176449     0.440767  Biso 1.000000     H
    H   1.0     0.161885     0.024354     0.348820  Biso 1.000000     H
    H   1.0     0.661910     0.024373     0.348805  Biso 1.000000     H
    H   1.0     0.380880     0.057393     0.455102  Biso 1.000000     H
    H   1.0     0.880878     0.057377     0.455130  Biso 1.000000     H
    H   1.0     0.373981     0.210321     0.537509  Biso 1.000000     H
    H   1.0     0.873978     0.210305     0.537536  Biso 1.000000     H
    H   1.0     0.426027     0.749447     0.660585  Biso 1.000000     H
    H   1.0     0.926035     0.749448     0.660587  Biso 1.000000     H
    H   1.0     0.437574     0.730705     0.567817  Biso 1.000000     H
    H   1.0     0.937580     0.730703     0.567818  Biso 1.000000     H
    H   1.0     0.164057     0.522003     0.675210  Biso 1.000000     H
    H   1.0     0.664063     0.522003     0.675208  Biso 1.000000     H
    H   1.0     0.045895     0.403592     0.546253  Biso 1.000000     H
    H   1.0     0.545903     0.403593     0.546250  Biso 1.000000     H
    H   1.0     0.478519     0.290031     0.626404  Biso 1.000000     H
    H   1.0     0.978523     0.290032     0.626409  Biso 1.000000     H
    H   1.0     0.470624     0.434227     0.744824  Biso 1.000000     H
    H   1.0     0.970630     0.434229     0.744827  Biso 1.000000     H
    H   1.0     0.189700     0.724087     0.724040  Biso 1.000000     H
    H   1.0     0.689702     0.724088     0.724045  Biso 1.000000     H
    H   1.0     0.277262     0.863337     0.812572  Biso 1.000000     H
    H   1.0     0.777262     0.863341     0.812577  Biso 1.000000     H
    H   1.0     0.093205     0.986766     0.847320  Biso 1.000000     H
    H   1.0     0.593201     0.986764     0.847321  Biso 1.000000     H
    H   1.0     0.011880     0.838468     0.759988  Biso 1.000000     H
    H   1.0     0.511879     0.838464     0.759989  Biso 1.000000     H
    H   1.0     0.426253     0.175868     0.938990  Biso 1.000000     H
    H   1.0     0.926253     0.175863     0.938997  Biso 1.000000     H
    H   1.0     0.350568     0.024277     0.847192  Biso 1.000000     H
    H   1.0     0.850566     0.024272     0.847200  Biso 1.000000     H
    H   1.0     0.148981     0.057798     0.955810  Biso 1.000000     H
    H   1.0     0.648979     0.057811     0.955804  Biso 1.000000     H
    H   1.0     0.232713     0.210204     0.038097  Biso 1.000000     H
    H   1.0     0.732712     0.210217     0.038090  Biso 1.000000     H
    H   1.0     0.051842     0.251424     0.839605  Biso 1.000000     H
    H   1.0     0.551849     0.251428     0.839603  Biso 1.000000     H
    H   1.0     0.072574     0.269331     0.932314  Biso 1.000000     H
    H   1.0     0.572580     0.269338     0.932312  Biso 1.000000     H
    H   1.0     0.403099     0.478970     0.825169  Biso 1.000000     H
    H   1.0     0.903105     0.478977     0.825171  Biso 1.000000     H
    H   1.0     0.343705     0.597214     0.954317  Biso 1.000000     H
    H   1.0     0.843713     0.597220     0.954321  Biso 1.000000     H
    H   1.0     0.332977     0.710697     0.874043  Biso 1.000000     H
    H   1.0     0.832989     0.710707     0.874049  Biso 1.000000     H
    H   1.0     0.253509     0.566284     0.755643  Biso 1.000000     H
    H   1.0     0.753520     0.566297     0.755647  Biso 1.000000     H
    H   1.0     0.328144     0.276276     0.774867  Biso 1.000000     H
    H   1.0     0.828154     0.276274     0.774882  Biso 1.000000     H
    H   1.0     0.345446     0.136629     0.685850  Biso 1.000000     H
    H   1.0     0.845458     0.136623     0.685870  Biso 1.000000     H
    H   1.0     0.099789     0.014172     0.653553  Biso 1.000000     H
    H   1.0     0.599801     0.014178     0.653554  Biso 1.000000     H
    H   1.0     0.093196     0.162720     0.741216  Biso 1.000000     H
    H   1.0     0.593207     0.162730     0.741211  Biso 1.000000     H
    H   1.0     0.337390     0.823588     0.559210  Biso 1.000000     H
    H   1.0     0.837392     0.823573     0.559230  Biso 1.000000     H
    H   1.0     0.338140     0.975667     0.651172  Biso 1.000000     H
    H   1.0     0.838141     0.975648     0.651197  Biso 1.000000     H
    H   1.0     0.119142     0.942625     0.544894  Biso 1.000000     H
    H   1.0     0.619165     0.942646     0.544890  Biso 1.000000     H
    H   1.0     0.126038     0.789696     0.462488  Biso 1.000000     H
    H   1.0     0.626058     0.789717     0.462481  Biso 1.000000     H
    C   1.0     0.387265     0.486760     0.360021  Biso 1.000000     C
    C   1.0     0.887269     0.486756     0.360023  Biso 1.000000     C
    C   1.0     0.419557     0.594583     0.401926  Biso 1.000000     C
    C   1.0     0.919561     0.594578     0.401931  Biso 1.000000     C
    C   1.0     0.476042     0.645154     0.343866  Biso 1.000000     C
    C   1.0     0.976048     0.645152     0.343873  Biso 1.000000     C
    C   1.0     0.008572     0.561299     0.313806  Biso 1.000000     C
    C   1.0     0.508580     0.561301     0.313802  Biso 1.000000     C
    C   1.0     0.367959     0.412873     0.416607  Biso 1.000000     C
    C   1.0     0.867963     0.412867     0.416608  Biso 1.000000     C
    C   1.0     0.361655     0.644919     0.431955  Biso 1.000000     C
    C   1.0     0.861659     0.644916     0.431958  Biso 1.000000     C
    C   1.0     0.443826     0.676482     0.274766  Biso 1.000000     C
    C   1.0     0.943833     0.676485     0.274774  Biso 1.000000     C
    C   1.0     0.073502     0.560254     0.368073  Biso 1.000000     C
    C   1.0     0.573509     0.560258     0.368073  Biso 1.000000     C
    C   1.0     0.330138     0.216594     0.247427  Biso 1.000000     C
    C   1.0     0.830145     0.216598     0.247423  Biso 1.000000     C
    C   1.0     0.280620     0.136734     0.197455  Biso 1.000000     C
    C   1.0     0.780626     0.136741     0.197450  Biso 1.000000     C
    C   1.0     0.306782     0.060748     0.160750  Biso 1.000000     C
    C   1.0     0.806783     0.060748     0.160751  Biso 1.000000     C
    C   1.0     0.383067     0.070581     0.177179  Biso 1.000000     C
    C   1.0     0.883065     0.070570     0.177186  Biso 1.000000     C
    C   1.0     0.428751     0.152752     0.227217  Biso 1.000000     C
    C   1.0     0.928751     0.152739     0.227225  Biso 1.000000     C
    C   1.0     0.135516     0.853708     0.060437  Biso 1.000000     C
    C   1.0     0.635517     0.853710     0.060436  Biso 1.000000     C
    C   1.0     0.178417     0.938518     0.110381  Biso 1.000000     C
    C   1.0     0.678418     0.938520     0.110380  Biso 1.000000     C
    C   1.0     0.257931     0.973141     0.107248  Biso 1.000000     C
    C   1.0     0.757932     0.973144     0.107247  Biso 1.000000     C
    C   1.0     0.290029     0.919231     0.051323  Biso 1.000000     C
    C   1.0     0.790030     0.919236     0.051319  Biso 1.000000     C
    C   1.0     0.243821     0.834599     0.004175  Biso 1.000000     C
    C   1.0     0.743821     0.834606     0.004171  Biso 1.000000     C
    C   1.0     0.143872     0.512524     0.139409  Biso 1.000000     C
    C   1.0     0.643880     0.512533     0.139410  Biso 1.000000     C
    C   1.0     0.122624     0.404723     0.097522  Biso 1.000000     C
    C   1.0     0.622633     0.404731     0.097524  Biso 1.000000     C
    C   1.0     0.153812     0.354135     0.155632  Biso 1.000000     C
    C   1.0     0.653821     0.354145     0.155635  Biso 1.000000     C
    C   1.0     0.228075     0.437997     0.185646  Biso 1.000000     C
    C   1.0     0.728084     0.438008     0.185649  Biso 1.000000     C
    C   1.0     0.161170     0.586812     0.083108  Biso 1.000000     C
    C   1.0     0.661179     0.586821     0.083109  Biso 1.000000     C
    C   1.0     0.039665     0.354728     0.067806  Biso 1.000000     C
    C   1.0     0.539674     0.354734     0.067807  Biso 1.000000     C
    C   1.0     0.105773     0.322815     0.224750  Biso 1.000000     C
    C   1.0     0.605782     0.322824     0.224753  Biso 1.000000     C
    C   1.0     0.293816     0.439147     0.131581  Biso 1.000000     C
    C   1.0     0.793823     0.439158     0.131582  Biso 1.000000     C
    C   1.0     0.221465     0.782956     0.253230  Biso 1.000000     C
    C   1.0     0.721478     0.782966     0.253230  Biso 1.000000     C
    C   1.0     0.212237     0.863012     0.303459  Biso 1.000000     C
    C   1.0     0.712250     0.863021     0.303460  Biso 1.000000     C
    C   1.0     0.276554     0.938848     0.339575  Biso 1.000000     C
    C   1.0     0.776568     0.938850     0.339584  Biso 1.000000     C
    C   1.0     0.347718     0.928666     0.322389  Biso 1.000000     C
    C   1.0     0.847730     0.928661     0.322406  Biso 1.000000     C
    C   1.0     0.351978     0.846338     0.272156  Biso 1.000000     C
    C   1.0     0.851991     0.846334     0.272173  Biso 1.000000     C
    C   1.0     0.209564     0.146598     0.440756  Biso 1.000000     C
    C   1.0     0.709579     0.146607     0.440752  Biso 1.000000     C
    C   1.0     0.209712     0.061548     0.390768  Biso 1.000000     C
    C   1.0     0.709730     0.061559     0.390763  Biso 1.000000     C
    C   1.0     0.271894     0.026657     0.393241  Biso 1.000000     C
    C   1.0     0.771906     0.026659     0.393249  Biso 1.000000     C
    C   1.0     0.331326     0.080559     0.448545  Biso 1.000000     C
    C   1.0     0.831330     0.080551     0.448563  Biso 1.000000     C
    C   1.0     0.327789     0.165474     0.495746  Biso 1.000000     C
    C   1.0     0.827792     0.165465     0.495764  Biso 1.000000     C
    C   1.0     0.112748     0.513248     0.639974  Biso 1.000000     C
    C   1.0     0.612755     0.513249     0.639971  Biso 1.000000     C
    C   1.0     0.080458     0.405431     0.598057  Biso 1.000000     C
    C   1.0     0.580466     0.405432     0.598054  Biso 1.000000     C
    C   1.0     0.023969     0.354842     0.656109  Biso 1.000000     C
    C   1.0     0.523977     0.354841     0.656104  Biso 1.000000     C
    C   1.0     0.491442     0.438693     0.686186  Biso 1.000000     C
    C   1.0     0.991448     0.438695     0.686189  Biso 1.000000     C
    C   1.0     0.132057     0.587149     0.583399  Biso 1.000000     C
    C   1.0     0.632064     0.587152     0.583398  Biso 1.000000     C
    C   1.0     0.138362     0.355097     0.568036  Biso 1.000000     C
    C   1.0     0.638369     0.355098     0.568033  Biso 1.000000     C
    C   1.0     0.056183     0.323499     0.725206  Biso 1.000000     C
    C   1.0     0.556190     0.323500     0.725202  Biso 1.000000     C
    C   1.0     0.426506     0.439749     0.631933  Biso 1.000000     C
    C   1.0     0.926513     0.439750     0.631936  Biso 1.000000     C
    C   1.0     0.169874     0.783404     0.752578  Biso 1.000000     C
    C   1.0     0.669874     0.783405     0.752582  Biso 1.000000     C
    C   1.0     0.219395     0.863264     0.802547  Biso 1.000000     C
    C   1.0     0.719395     0.863267     0.802551  Biso 1.000000     C
    C   1.0     0.193238     0.939256     0.839249  Biso 1.000000     C
    C   1.0     0.693236     0.939258     0.839252  Biso 1.000000     C
    C   1.0     0.116954     0.929429     0.822820  Biso 1.000000     C
    C   1.0     0.616952     0.929429     0.822821  Biso 1.000000     C
    C   1.0     0.071266     0.847257     0.772785  Biso 1.000000     C
    C   1.0     0.571265     0.847256     0.772787  Biso 1.000000     C
    C   1.0     0.364503     0.146297     0.939564  Biso 1.000000     C
    C   1.0     0.864502     0.146296     0.939568  Biso 1.000000     C
    C   1.0     0.321603     0.061487     0.889618  Biso 1.000000     C
    C   1.0     0.821602     0.061486     0.889623  Biso 1.000000     C
    C   1.0     0.242089     0.026860     0.892752  Biso 1.000000     C
    C   1.0     0.742087     0.026864     0.892753  Biso 1.000000     C
    C   1.0     0.209991     0.080766     0.948681  Biso 1.000000     C
    C   1.0     0.709989     0.080774     0.948678  Biso 1.000000     C
    C   1.0     0.256198     0.165396     0.995831  Biso 1.000000     C
    C   1.0     0.756197     0.165404     0.995827  Biso 1.000000     C
    C   1.0     0.356133     0.487460     0.860590  Biso 1.000000     C
    C   1.0     0.856140     0.487467     0.860593  Biso 1.000000     C
    C   1.0     0.377379     0.595264     0.902473  Biso 1.000000     C
    C   1.0     0.877387     0.595270     0.902478  Biso 1.000000     C
    C   1.0     0.346186     0.645847     0.844364  Biso 1.000000     C
    C   1.0     0.846196     0.645855     0.844369  Biso 1.000000     C
    C   1.0     0.271924     0.561980     0.814352  Biso 1.000000     C
    C   1.0     0.771933     0.561991     0.814356  Biso 1.000000     C
    C   1.0     0.338832     0.413179     0.916898  Biso 1.000000     C
    C   1.0     0.838838     0.413184     0.916899  Biso 1.000000     C
    C   1.0     0.460337     0.645273     0.932191  Biso 1.000000     C
    C   1.0     0.960346     0.645277     0.932195  Biso 1.000000     C
    C   1.0     0.394225     0.677175     0.775249  Biso 1.000000     C
    C   1.0     0.894236     0.677182     0.775253  Biso 1.000000     C
    C   1.0     0.206189     0.560829     0.868428  Biso 1.000000     C
    C   1.0     0.706196     0.560838     0.868429  Biso 1.000000     C
    C   1.0     0.278541     0.217057     0.746770  Biso 1.000000     C
    C   1.0     0.778551     0.217057     0.746782  Biso 1.000000     C
    C   1.0     0.287778     0.137005     0.696543  Biso 1.000000     C
    C   1.0     0.787789     0.137003     0.696558  Biso 1.000000     C
    C   1.0     0.223464     0.061168     0.660420  Biso 1.000000     C
    C   1.0     0.723476     0.061168     0.660430  Biso 1.000000     C
    C   1.0     0.152298     0.071345     0.677597  Biso 1.000000     C
    C   1.0     0.652310     0.071350     0.677601  Biso 1.000000     C
    C   1.0     0.148029     0.153670     0.727826  Biso 1.000000     C
    C   1.0     0.648040     0.153677     0.727827  Biso 1.000000     C
    C   1.0     0.290459     0.853423     0.559236  Biso 1.000000     C
    C   1.0     0.790465     0.853415     0.559251  Biso 1.000000     C
    C   1.0     0.290311     0.938472     0.609225  Biso 1.000000     C
    C   1.0     0.790317     0.938462     0.609243  Biso 1.000000     C
    C   1.0     0.228128     0.973361     0.606754  Biso 1.000000     C
    C   1.0     0.728140     0.973361     0.606764  Biso 1.000000     C
    C   1.0     0.168696     0.919460     0.551451  Biso 1.000000     C
    C   1.0     0.668713     0.919471     0.551453  Biso 1.000000     C
    C   1.0     0.172231     0.834545     0.504250  Biso 1.000000     C
    C   1.0     0.672247     0.834557     0.504249  Biso 1.000000     C
    N   1.0     0.403200     0.225353     0.262675  Biso 1.000000     N
    N   1.0     0.903204     0.225349     0.262676  Biso 1.000000     N
    N   1.0     0.167539     0.801544     0.008168  Biso 1.000000     N
    N   1.0     0.667539     0.801549     0.008165  Biso 1.000000     N
    N   1.0     0.289971     0.773901     0.237250  Biso 1.000000     N
    N   1.0     0.789985     0.773904     0.237258  Biso 1.000000     N
    N   1.0     0.268024     0.198752     0.492391  Biso 1.000000     N
    N   1.0     0.768032     0.198751     0.492398  Biso 1.000000     N
    N   1.0     0.096813     0.774649     0.737332  Biso 1.000000     N
    N   1.0     0.596814     0.774649     0.737335  Biso 1.000000     N
    N   1.0     0.332480     0.198455     0.991837  Biso 1.000000     N
    N   1.0     0.832479     0.198459     0.991837  Biso 1.000000     N
    N   1.0     0.210032     0.226108     0.762742  Biso 1.000000     N
    N   1.0     0.710042     0.226113     0.762746  Biso 1.000000     N
    N   1.0     0.231996     0.801268     0.507603  Biso 1.000000     N
    N   1.0     0.732007     0.801271     0.507610  Biso 1.000000     N
    O   1.0     0.444864     0.470526     0.308119  Biso 1.000000     O
    O   1.0     0.944869     0.470524     0.308122  Biso 1.000000     O
    O   1.0     0.034805     0.250289     0.379898  Biso 1.000000     O
    O   1.0     0.534811     0.250291     0.379898  Biso 1.000000     O
    O   1.0     0.405788     0.354489     0.420291  Biso 1.000000     O
    O   1.0     0.905792     0.354483     0.420291  Biso 1.000000     O
    O   1.0     0.312076     0.417133     0.457526  Biso 1.000000     O
    O   1.0     0.812080     0.417127     0.457527  Biso 1.000000     O
    O   1.0     0.293995     0.609542     0.400518  Biso 1.000000     O
    O   1.0     0.794000     0.609541     0.400519  Biso 1.000000     O
    O   1.0     0.383974     0.718244     0.486126  Biso 1.000000     O
    O   1.0     0.883979     0.718240     0.486130  Biso 1.000000     O
    O   1.0     0.373933     0.632370     0.254222  Biso 1.000000     O
    O   1.0     0.873942     0.632368     0.254223  Biso 1.000000     O
    O   1.0     0.490468     0.742846     0.242869  Biso 1.000000     O
    O   1.0     0.990474     0.742857     0.242884  Biso 1.000000     O
    O   1.0     0.129538     0.641737     0.379992  Biso 1.000000     O
    O   1.0     0.629544     0.641742     0.379992  Biso 1.000000     O
    O   1.0     0.068700     0.484139     0.396724  Biso 1.000000     O
    O   1.0     0.568707     0.484144     0.396725  Biso 1.000000     O
    O   1.0     0.209611     0.528791     0.191055  Biso 1.000000     O
    O   1.0     0.709619     0.528802     0.191058  Biso 1.000000     O
    O   1.0     0.409166     0.749207     0.120075  Biso 1.000000     O
    O   1.0     0.909176     0.749219     0.120082  Biso 1.000000     O
    O   1.0     0.228044     0.645366     0.079546  Biso 1.000000     O
    O   1.0     0.728052     0.645377     0.079547  Biso 1.000000     O
    O   1.0     0.103124     0.582869     0.042526  Biso 1.000000     O
    O   1.0     0.603132     0.582875     0.042525  Biso 1.000000     O
    O   1.0     0.489928     0.390584     0.099493  Biso 1.000000     O
    O   1.0     0.989932     0.390579     0.099491  Biso 1.000000     O
    O   1.0     0.024977     0.281330     0.013654  Biso 1.000000     O
    O   1.0     0.524986     0.281337     0.013655  Biso 1.000000     O
    O   1.0     0.057999     0.367226     0.245375  Biso 1.000000     O
    O   1.0     0.558008     0.367235     0.245378  Biso 1.000000     O
    O   1.0     0.118984     0.256216     0.256620  Biso 1.000000     O
    O   1.0     0.618992     0.256223     0.256620  Biso 1.000000     O
    O   1.0     0.309463     0.357777     0.119812  Biso 1.000000     O
    O   1.0     0.809470     0.357788     0.119813  Biso 1.000000     O
    O   1.0     0.327020     0.515393     0.103105  Biso 1.000000     O
    O   1.0     0.827026     0.515403     0.103104  Biso 1.000000     O
    O   1.0     0.055147     0.529471     0.691873  Biso 1.000000     O
    O   1.0     0.555152     0.529471     0.691869  Biso 1.000000     O
    O   1.0     0.465203     0.749725     0.620112  Biso 1.000000     O
    O   1.0     0.965211     0.749725     0.620113  Biso 1.000000     O
    O   1.0     0.094227     0.645533     0.579722  Biso 1.000000     O
    O   1.0     0.594235     0.645537     0.579722  Biso 1.000000     O
    O   1.0     0.187943     0.582896     0.542483  Biso 1.000000     O
    O   1.0     0.687950     0.582899     0.542482  Biso 1.000000     O
    O   1.0     0.206017     0.390475     0.599483  Biso 1.000000     O
    O   1.0     0.706024     0.390476     0.599482  Biso 1.000000     O
    O   1.0     0.116046     0.281771     0.513866  Biso 1.000000     O
    O   1.0     0.616054     0.281772     0.513864  Biso 1.000000     O
    O   1.0     0.126067     0.367637     0.745775  Biso 1.000000     O
    O   1.0     0.626074     0.367639     0.745771  Biso 1.000000     O
    O   1.0     0.009546     0.257108     0.757085  Biso 1.000000     O
    O   1.0     0.509554     0.257109     0.757081  Biso 1.000000     O
    O   1.0     0.370466     0.358269     0.620020  Biso 1.000000     O
    O   1.0     0.870473     0.358271     0.620022  Biso 1.000000     O
    O   1.0     0.431305     0.515868     0.603289  Biso 1.000000     O
    O   1.0     0.931311     0.515869     0.603291  Biso 1.000000     O
    O   1.0     0.290394     0.471189     0.808939  Biso 1.000000     O
    O   1.0     0.790402     0.471198     0.808942  Biso 1.000000     O
    O   1.0     0.090828     0.250763     0.879912  Biso 1.000000     O
    O   1.0     0.590835     0.250769     0.879911  Biso 1.000000     O
    O   1.0     0.271958     0.354627     0.920464  Biso 1.000000     O
    O   1.0     0.771963     0.354634     0.920465  Biso 1.000000     O
    O   1.0     0.396879     0.417129     0.957484  Biso 1.000000     O
    O   1.0     0.896884     0.417132     0.957484  Biso 1.000000     O
    O   1.0     0.010083     0.609426     0.900520  Biso 1.000000     O
    O   1.0     0.510087     0.609423     0.900517  Biso 1.000000     O
    O   1.0     0.475021     0.718681     0.986334  Biso 1.000000     O
    O   1.0     0.975029     0.718682     0.986340  Biso 1.000000     O
    O   1.0     0.442000     0.632765     0.754620  Biso 1.000000     O
    O   1.0     0.942012     0.632774     0.754628  Biso 1.000000     O
    O   1.0     0.381017     0.743781     0.743388  Biso 1.000000     O
    O   1.0     0.881026     0.743784     0.743389  Biso 1.000000     O
    O   1.0     0.190542     0.642197     0.880201  Biso 1.000000     O
    O   1.0     0.690549     0.642207     0.880202  Biso 1.000000     O
    O   1.0     0.172992     0.484584     0.896909  Biso 1.000000     O
    O   1.0     0.672997     0.484592     0.896907  Biso 1.000000     O
   Zn   1.0     0.487598     0.347855     0.339390  Biso 1.000000    Zn
   Zn   1.0     0.987604     0.347851     0.339390  Biso 1.000000    Zn
   Zn   1.0     0.283921     0.344363     0.546466  Biso 1.000000    Zn
   Zn   1.0     0.783928     0.344362     0.546468  Biso 1.000000    Zn
   Zn   1.0     0.313010     0.651519     0.160344  Biso 1.000000    Zn
   Zn   1.0     0.813019     0.651527     0.160346  Biso 1.000000    Zn
   Zn   1.0     0.110591     0.656013     0.953784  Biso 1.000000    Zn
   Zn   1.0     0.610594     0.656016     0.953783  Biso 1.000000    Zn
   Zn   1.0     0.012411     0.652156     0.660621  Biso 1.000000    Zn
   Zn   1.0     0.512417     0.652156     0.660620  Biso 1.000000    Zn
   Zn   1.0     0.216093     0.655656     0.453543  Biso 1.000000    Zn
   Zn   1.0     0.716100     0.655659     0.453543  Biso 1.000000    Zn
   Zn   1.0     0.186990     0.348473     0.839664  Biso 1.000000    Zn
   Zn   1.0     0.686997     0.348481     0.839664  Biso 1.000000    Zn
   Zn   1.0     0.389420     0.343994     0.046230  Biso 1.000000    Zn
   Zn   1.0     0.889423     0.343995     0.046230  Biso 1.000000    Zn
