#======================================================================

# CRYSTAL DATA

#----------------------------------------------------------------------

data_VESTA_phase_1


_pd_phase_name                         MOF
_cell_length_a                         13.96800
_cell_length_b                         14.56200
_cell_length_c                         24.16500
_cell_angle_alpha                      89.97900
_cell_angle_beta                       90.00500
_cell_angle_gamma                      116.97100
_symmetry_space_group_name_H-M         "P 1"
_symmetry_Int_Tables_number            1

loop_
_symmetry_equiv_pos_as_xyz
   "x, y, z"

loop_
   _atom_site_label
   _atom_site_occupancy
   _atom_site_fract_x
   _atom_site_fract_y
   _atom_site_fract_z
   _atom_site_adp_type
   _atom_site_B_iso_or_equiv
   _atom_site_type_symbol
    H   1.0     0.853493     0.414282     0.604500  Biso 1.000000     H
    H   1.0     0.933813     0.306860     0.644541  Biso 1.000000     H
    H   1.0     0.811551     0.096518     0.507969  Biso 1.000000     H
    H   1.0     0.728778     0.200467     0.468250  Biso 1.000000     H
    H   1.0     0.593958     0.214236     0.582164  Biso 1.000000     H
    H   1.0     0.404583     0.121325     0.612324  Biso 1.000000     H
    H   1.0     0.319270     0.300989     0.499401  Biso 1.000000     H
    H   1.0     0.510652     0.404055     0.474375  Biso 1.000000     H
    H   1.0     0.882790     0.590987     0.463077  Biso 1.000000     H
    H   1.0     0.971112     0.763531     0.505106  Biso 1.000000     H
    H   1.0     0.766374     0.654611     0.647492  Biso 1.000000     H
    H   1.0     0.674711     0.479133     0.605829  Biso 1.000000     H
    H   1.0     0.562988     0.327026     0.403133  Biso 1.000000     H
    H   1.0     0.597353     0.334230     0.302457  Biso 1.000000     H
    H   1.0     0.936151     0.453937     0.333095  Biso 1.000000     H
    H   1.0     0.902999     0.443265     0.434068  Biso 1.000000     H
    H   1.0     0.733039     0.368266     0.177848  Biso 1.000000     H
    H   1.0     0.146870     0.085448     0.104496  Biso 1.000000     H
    H   1.0     0.066492     0.192820     0.144480  Biso 1.000000     H
    H   1.0     0.188305     0.402943     0.007714  Biso 1.000000     H
    H   1.0     0.271105     0.299035     0.968046  Biso 1.000000     H
    H   1.0     0.406135     0.285296     0.082161  Biso 1.000000     H
    H   1.0     0.595471     0.378207     0.112362  Biso 1.000000     H
    H   1.0     0.681003     0.198842    -0.000573  Biso 1.000000     H
    H   1.0     0.489660     0.095766     0.974376  Biso 1.000000     H
    H   1.0     0.117132     0.908745     0.963236  Biso 1.000000     H
    H   1.0     0.028867     0.736196     0.005303  Biso 1.000000     H
    H   1.0     0.234271     0.844860     0.147433  Biso 1.000000     H
    H   1.0     0.325854     0.020399     0.105733  Biso 1.000000     H
    H   1.0     0.437293     0.172640     0.903087  Biso 1.000000     H
    H   1.0     0.402925     0.165403     0.802412  Biso 1.000000     H
    H   1.0     0.064117     0.045593     0.833069  Biso 1.000000     H
    H   1.0     0.097270     0.056312     0.934036  Biso 1.000000     H
    H   1.0     0.267135     0.131346     0.677797  Biso 1.000000     H
    H   1.0     0.146604     0.585741     0.395591  Biso 1.000000     H
    H   1.0     0.066280     0.693151     0.355541  Biso 1.000000     H
    H   1.0     0.188490     0.903488     0.492119  Biso 1.000000     H
    H   1.0     0.271264     0.799550     0.531847  Biso 1.000000     H
    H   1.0     0.406123     0.785775     0.417922  Biso 1.000000     H
    H   1.0     0.595503     0.878686     0.387770  Biso 1.000000     H
    H   1.0     0.680793     0.699018     0.500702  Biso 1.000000     H
    H   1.0     0.489406     0.595951     0.525719  Biso 1.000000     H
    H   1.0     0.117286     0.409022     0.537024  Biso 1.000000     H
    H   1.0     0.028959     0.236480     0.494993  Biso 1.000000     H
    H   1.0     0.233675     0.345408     0.352600  Biso 1.000000     H
    H   1.0     0.325348     0.520881     0.394266  Biso 1.000000     H
    H   1.0     0.437094     0.672972     0.596972  Biso 1.000000     H
    H   1.0     0.402714     0.665743     0.697647  Biso 1.000000     H
    H   1.0     0.063926     0.546086     0.666993  Biso 1.000000     H
    H   1.0     0.097094     0.556779     0.566023  Biso 1.000000     H
    H   1.0     0.266959     0.631667     0.822262  Biso 1.000000     H
    H   1.0     0.853179     0.914494     0.895597  Biso 1.000000     H
    H   1.0     0.933573     0.807135     0.855614  Biso 1.000000     H
    H   1.0     0.811787     0.597017     0.992383  Biso 1.000000     H
    H   1.0     0.728985     0.700919     0.032054  Biso 1.000000     H
    H   1.0     0.593915     0.714654     0.917929  Biso 1.000000     H
    H   1.0     0.404564     0.621745     0.887746  Biso 1.000000     H
    H   1.0     0.319087     0.801140     0.000000  Biso 1.000000     H
    H   1.0     0.510442     0.904216     0.025720  Biso 1.000000     H
    H   1.0     0.882913     0.091203     0.036883  Biso 1.000000     H
    H   1.0     0.971181     0.263765     0.994828  Biso 1.000000     H
    H   1.0     0.765851     0.155113     0.852671  Biso 1.000000     H
    H   1.0     0.674259     0.979566     0.894360  Biso 1.000000     H
    H   1.0     0.562762     0.827329     0.097012  Biso 1.000000     H
    H   1.0     0.597138     0.834585     0.197688  Biso 1.000000     H
    H   1.0     0.935935     0.954326     0.167022  Biso 1.000000     H
    H   1.0     0.902776     0.943598     0.066055  Biso 1.000000     H
    H   1.0     0.732990     0.868698     0.322311  Biso 1.000000     H
    C   1.0     0.784302     0.314949     0.533642  Biso 1.000000     C
    C   1.0     0.843418     0.344346     0.583205  Biso 1.000000     C
    C   1.0     0.888920     0.285026     0.605840  Biso 1.000000     C
    C   1.0     0.877357     0.195408     0.578777  Biso 1.000000     C
    C   1.0     0.819808     0.165913     0.528969  Biso 1.000000     C
    C   1.0     0.773640     0.224829     0.506955  Biso 1.000000     C
    C   1.0     0.926655     0.132218     0.602663  Biso 1.000000     C
    C   1.0     0.567320     0.315431     0.525313  Biso 1.000000     C
    C   1.0     0.534895     0.235560     0.564588  Biso 1.000000     C
    C   1.0     0.428058     0.182452     0.581516  Biso 1.000000     C
    C   1.0     0.349804     0.204735     0.557447  Biso 1.000000     C
    C   1.0     0.380521     0.284064     0.518123  Biso 1.000000     C
    C   1.0     0.488271     0.340360     0.503582  Biso 1.000000     C
    C   1.0     0.233645     0.141681     0.571144  Biso 1.000000     C
    C   1.0     0.772847     0.520832     0.531633  Biso 1.000000     C
    C   1.0     0.856198     0.602943     0.503649  Biso 1.000000     C
    C   1.0     0.906233     0.700920     0.526929  Biso 1.000000     C
    C   1.0     0.874455     0.719616     0.578940  Biso 1.000000     C
    C   1.0     0.790687     0.638986     0.607150  Biso 1.000000     C
    C   1.0     0.740362     0.541018     0.583569  Biso 1.000000     C
    C   1.0     0.929435     0.824691     0.603840  Biso 1.000000     C
    C   1.0     0.730386     0.387358     0.426621  Biso 1.000000     C
    C   1.0     0.645374     0.355873     0.388432  Biso 1.000000     C
    C   1.0     0.663964     0.359404     0.331582  Biso 1.000000     C
    C   1.0     0.769154     0.395936     0.311542  Biso 1.000000     C
    C   1.0     0.854909     0.426864     0.349078  Biso 1.000000     C
    C   1.0     0.835358     0.421447     0.405687  Biso 1.000000     C
    C   1.0     0.792827     0.402659     0.251518  Biso 1.000000     C
    C   1.0     0.215851     0.184676     0.033541  Biso 1.000000     C
    C   1.0     0.156831     0.155323     0.083143  Biso 1.000000     C
    C   1.0     0.111300     0.214616     0.105748  Biso 1.000000     C
    C   1.0     0.122718     0.304165     0.078621  Biso 1.000000     C
    C   1.0     0.180154     0.333607     0.028770  Biso 1.000000     C
    C   1.0     0.226344     0.274709     0.006780  Biso 1.000000     C
    C   1.0     0.073461     0.367358     0.102529  Biso 1.000000     C
    C   1.0     0.432885     0.184246     0.025304  Biso 1.000000     C
    C   1.0     0.465238     0.264036     0.064594  Biso 1.000000     C
    C   1.0     0.572055     0.317145     0.081543  Biso 1.000000     C
    C   1.0     0.650361     0.294947     0.057483  Biso 1.000000     C
    C   1.0     0.619716     0.215700     0.018145  Biso 1.000000     C
    C   1.0     0.511984     0.159396     0.003584  Biso 1.000000     C
    C   1.0     0.766507     0.358029     0.071185  Biso 1.000000     C
    C   1.0     0.227404     0.978793     0.031657  Biso 1.000000     C
    C   1.0     0.143881     0.896739     0.003757  Biso 1.000000     C
    C   1.0     0.093878     0.798753     0.027062  Biso 1.000000     C
    C   1.0     0.125856     0.779976     0.079014  Biso 1.000000     C
    C   1.0     0.209796     0.860542     0.107137  Biso 1.000000     C
    C   1.0     0.260075     0.958532     0.083536  Biso 1.000000     C
    C   1.0     0.070925     0.674860     0.103910  Biso 1.000000     C
    C   1.0     0.269892     0.112281     0.926589  Biso 1.000000     C
    C   1.0     0.354903     0.143763     0.888393  Biso 1.000000     C
    C   1.0     0.336311     0.140216     0.831540  Biso 1.000000     C
    C   1.0     0.231116     0.103655     0.811507  Biso 1.000000     C
    C   1.0     0.145362     0.072705     0.849049  Biso 1.000000     C
    C   1.0     0.164916     0.078140     0.905656  Biso 1.000000     C
    C   1.0     0.207407     0.096974     0.751488  Biso 1.000000     C
    C   1.0     0.215768     0.685069     0.466453  Biso 1.000000     C
    C   1.0     0.156666     0.655672     0.416886  Biso 1.000000     C
    C   1.0     0.111162     0.714986     0.394246  Biso 1.000000     C
    C   1.0     0.122710     0.804602     0.421306  Biso 1.000000     C
    C   1.0     0.180243     0.834096     0.471119  Biso 1.000000     C
    C   1.0     0.226413     0.775186     0.493139  Biso 1.000000     C
    C   1.0     0.073412     0.867783     0.397407  Biso 1.000000     C
    C   1.0     0.432750     0.684580     0.474777  Biso 1.000000     C
    C   1.0     0.465182     0.764451     0.435501  Biso 1.000000     C
    C   1.0     0.572022     0.817558     0.418578  Biso 1.000000     C
    C   1.0     0.650271     0.795274     0.442652  Biso 1.000000     C
    C   1.0     0.619546     0.715942     0.481976  Biso 1.000000     C
    C   1.0     0.511793     0.659648     0.496512  Biso 1.000000     C
    C   1.0     0.766436     0.858325     0.428967  Biso 1.000000     C
    C   1.0     0.227221     0.479181     0.468466  Biso 1.000000     C
    C   1.0     0.143872     0.397068     0.496450  Biso 1.000000     C
    C   1.0     0.093834     0.299091     0.473168  Biso 1.000000     C
    C   1.0     0.125595     0.280401     0.421151  Biso 1.000000     C
    C   1.0     0.209368     0.361030     0.392944  Biso 1.000000     C
    C   1.0     0.259697     0.458997     0.416527  Biso 1.000000     C
    C   1.0     0.070617     0.175324     0.396250  Biso 1.000000     C
    C   1.0     0.269702     0.612666     0.573476  Biso 1.000000     C
    C   1.0     0.354707     0.644130     0.611669  Biso 1.000000     C
    C   1.0     0.336108     0.640585     0.668520  Biso 1.000000     C
    C   1.0     0.230914     0.604058     0.688554  Biso 1.000000     C
    C   1.0     0.145169     0.573154     0.651013  Biso 1.000000     C
    C   1.0     0.164730     0.578583     0.594405  Biso 1.000000     C
    C   1.0     0.207205     0.597306     0.748575  Biso 1.000000     C
    C   1.0     0.784219     0.815272     0.966556  Biso 1.000000     C
    C   1.0     0.843231     0.844625     0.916952  Biso 1.000000     C
    C   1.0     0.888771     0.785340     0.894347  Biso 1.000000     C
    C   1.0     0.877365     0.695795     0.921474  Biso 1.000000     C
    C   1.0     0.819934     0.666351     0.971326  Biso 1.000000     C
    C   1.0     0.773739     0.725244     0.993318  Biso 1.000000     C
    C   1.0     0.926627     0.632613     0.897558  Biso 1.000000     C
    C   1.0     0.567188     0.815716     0.974788  Biso 1.000000     C
    C   1.0     0.534820     0.735921     0.935502  Biso 1.000000     C
    C   1.0     0.427996     0.682813     0.918562  Biso 1.000000     C
    C   1.0     0.349704     0.705022     0.942630  Biso 1.000000     C
    C   1.0     0.380366     0.784277     0.981964  Biso 1.000000     C
    C   1.0     0.488102     0.840579     0.996514  Biso 1.000000     C
    C   1.0     0.233550     0.641944     0.928944  Biso 1.000000     C
    C   1.0     0.772678     0.021161     0.968448  Biso 1.000000     C
    C   1.0     0.856180     0.103214     0.996359  Biso 1.000000     C
    C   1.0     0.906187     0.201206     0.973061  Biso 1.000000     C
    C   1.0     0.874229     0.219990     0.921105  Biso 1.000000     C
    C   1.0     0.790310     0.139425     0.892970  Biso 1.000000     C
    C   1.0     0.740025     0.041431     0.916565  Biso 1.000000     C
    C   1.0     0.929170     0.325108     0.896213  Biso 1.000000     C
    C   1.0     0.730159     0.887657     0.073508  Biso 1.000000     C
    C   1.0     0.645152     0.856195     0.111705  Biso 1.000000     C
    C   1.0     0.663748     0.859752     0.168558  Biso 1.000000     C
    C   1.0     0.768943     0.896298     0.188588  Biso 1.000000     C
    C   1.0     0.854692     0.927225     0.151043  Biso 1.000000     C
    C   1.0     0.835133     0.921783     0.094437  Biso 1.000000     C
    C   1.0     0.792681     0.903006     0.248603  Biso 1.000000     C
    O   1.0    -0.038864     0.147225     0.652037  Biso 1.000000     O
    O   1.0     0.932920     0.062426     0.571933  Biso 1.000000     O
    O   1.0     0.165740     0.122817     0.533019  Biso 1.000000     O
    O   1.0     0.207234     0.107875     0.621193  Biso 1.000000     O
    O   1.0     0.905708     0.841015     0.652274  Biso 1.000000     O
    O   1.0     0.000000     0.898080     0.574731  Biso 1.000000     O
    O   1.0     0.887226     0.445205     0.233952  Biso 1.000000     O
    O   1.0     0.708019     0.361019     0.218572  Biso 1.000000     O
    O   1.0     0.000000     0.352205     0.151903  Biso 1.000000     O
    O   1.0     0.067264     0.437280     0.071853  Biso 1.000000     O
    O   1.0     0.834424     0.377048     0.033048  Biso 1.000000     O
    O   1.0     0.792909     0.391698     0.121243  Biso 1.000000     O
    O   1.0     0.094900     0.658367     0.152262  Biso 1.000000     O
    O   1.0    -0.001983     0.601587     0.074863  Biso 1.000000     O
    O   1.0     0.112991     0.054524     0.733955  Biso 1.000000     O
    O   1.0     0.292189     0.138582     0.718512  Biso 1.000000     O
    O   1.0     0.000000     0.852766     0.348033  Biso 1.000000     O
    O   1.0     0.067134     0.937584     0.428125  Biso 1.000000     O
    O   1.0     0.834319     0.877188     0.467102  Biso 1.000000     O
    O   1.0     0.792870     0.892127     0.378918  Biso 1.000000     O
    O   1.0     0.094328     0.159008     0.347811  Biso 1.000000     O
    O   1.0    -0.002030     0.101928     0.425363  Biso 1.000000     O
    O   1.0     0.112787     0.554762     0.766113  Biso 1.000000     O
    O   1.0     0.291987     0.638914     0.781542  Biso 1.000000     O
    O   1.0    -0.038823     0.647807     0.848193  Biso 1.000000     O
    O   1.0     0.932791     0.562651     0.928215  Biso 1.000000     O
    O   1.0     0.165657     0.622943     0.967090  Biso 1.000000     O
    O   1.0     0.207126     0.608265     0.878889  Biso 1.000000     O
    O   1.0     0.905228     0.341597     0.847852  Biso 1.000000     O
    O   1.0     0.000000     0.398383     0.925269  Biso 1.000000     O
    O   1.0     0.887116     0.945429     0.266111  Biso 1.000000     O
    O   1.0     0.707923     0.861470     0.281599  Biso 1.000000     O
   Si   1.0     0.712166     0.385701     0.503948  Biso 1.000000    Si
   Si   1.0     0.288065     0.113962     0.003917  Biso 1.000000    Si
   Si   1.0     0.287909     0.614318     0.496147  Biso 1.000000    Si
   Si   1.0     0.712003     0.885986     0.996179  Biso 1.000000    Si
   Ca   1.0     0.023828     0.020823     0.648802  Biso 1.000000    Ca
   Ca   1.0     0.976376     0.478670     0.148803  Biso 1.000000    Ca
   Ca   1.0     0.976258     0.979190     0.351276  Biso 1.000000    Ca
   Ca   1.0     0.023693     0.521287     0.851294  Biso 1.000000    Ca
   Ca   1.0     0.000030     0.000018     0.500042  Biso 1.000000    Ca
   Ca   1.0     0.000011     0.499991     0.000050  Biso 1.000000    Ca
