#======================================================================

# CRYSTAL DATA

#----------------------------------------------------------------------

data_VESTA_phase_1


_pd_phase_name                         MOF
_cell_length_a                         17.05900
_cell_length_b                         19.06900
_cell_length_c                         22.15900
_cell_angle_alpha                      89.96200
_cell_angle_beta                       90.00000
_cell_angle_gamma                      90.00000
_symmetry_space_group_name_H-M         "P 1"
_symmetry_Int_Tables_number            1

loop_
_symmetry_equiv_pos_as_xyz
   "x, y, z"

loop_
   _atom_site_label
   _atom_site_occupancy
   _atom_site_fract_x
   _atom_site_fract_y
   _atom_site_fract_z
   _atom_site_adp_type
   _atom_site_B_iso_or_equiv
   _atom_site_type_symbol
    H   1.0     0.386907     0.117403     0.168432  Biso 1.000000     H
    H   1.0     0.387909     0.116148     0.668741  Biso 1.000000     H
    H   1.0     0.386910     0.617393     0.168432  Biso 1.000000     H
    H   1.0     0.387912     0.616138     0.668741  Biso 1.000000     H
    H   1.0     0.886921     0.117403     0.168432  Biso 1.000000     H
    H   1.0     0.887923     0.116148     0.668741  Biso 1.000000     H
    H   1.0     0.886924     0.617393     0.168432  Biso 1.000000     H
    H   1.0     0.887926     0.616138     0.668741  Biso 1.000000     H
    H   1.0     0.425843     0.089534     0.068384  Biso 1.000000     H
    H   1.0     0.425547     0.089603     0.568525  Biso 1.000000     H
    H   1.0     0.425846     0.589524     0.068384  Biso 1.000000     H
    H   1.0     0.425550     0.589593     0.568525  Biso 1.000000     H
    H   1.0     0.925857     0.089534     0.068384  Biso 1.000000     H
    H   1.0     0.925561     0.089603     0.568525  Biso 1.000000     H
    H   1.0     0.925860     0.589524     0.068384  Biso 1.000000     H
    H   1.0     0.925564     0.589593     0.568525  Biso 1.000000     H
    H   1.0     0.289299     0.195702     0.142214  Biso 1.000000     H
    H   1.0     0.289474     0.194531     0.643991  Biso 1.000000     H
    H   1.0     0.289302     0.695692     0.142214  Biso 1.000000     H
    H   1.0     0.289477     0.694521     0.643991  Biso 1.000000     H
    H   1.0     0.789313     0.195702     0.142214  Biso 1.000000     H
    H   1.0     0.789488     0.194531     0.643991  Biso 1.000000     H
    H   1.0     0.789316     0.695692     0.142214  Biso 1.000000     H
    H   1.0     0.789491     0.694521     0.643991  Biso 1.000000     H
    H   1.0     0.468372     0.181569     0.020707  Biso 1.000000     H
    H   1.0     0.468344     0.181459     0.521236  Biso 1.000000     H
    H   1.0     0.468375     0.681558     0.020707  Biso 1.000000     H
    H   1.0     0.468347     0.681449     0.521236  Biso 1.000000     H
    H   1.0     0.968386     0.181569     0.020707  Biso 1.000000     H
    H   1.0     0.968358     0.181459     0.521236  Biso 1.000000     H
    H   1.0     0.968389     0.681558     0.020707  Biso 1.000000     H
    H   1.0     0.968361     0.681449     0.521236  Biso 1.000000     H
    H   1.0     0.137903     0.133848     0.331262  Biso 1.000000     H
    H   1.0     0.136903     0.132591     0.831572  Biso 1.000000     H
    H   1.0     0.137906     0.633837     0.331262  Biso 1.000000     H
    H   1.0     0.136906     0.632581     0.831572  Biso 1.000000     H
    H   1.0     0.637917     0.133848     0.331262  Biso 1.000000     H
    H   1.0     0.636917     0.132591     0.831572  Biso 1.000000     H
    H   1.0     0.637920     0.633837     0.331262  Biso 1.000000     H
    H   1.0     0.636920     0.632581     0.831572  Biso 1.000000     H
    H   1.0     0.175540     0.160392     0.431479  Biso 1.000000     H
    H   1.0     0.175838     0.160459     0.931620  Biso 1.000000     H
    H   1.0     0.175543     0.660382     0.431479  Biso 1.000000     H
    H   1.0     0.175841     0.660449     0.931620  Biso 1.000000     H
    H   1.0     0.675554     0.160392     0.431479  Biso 1.000000     H
    H   1.0     0.675852     0.160459     0.931620  Biso 1.000000     H
    H   1.0     0.675557     0.660382     0.431479  Biso 1.000000     H
    H   1.0     0.675855     0.660449     0.931620  Biso 1.000000     H
    H   1.0     0.039466     0.055467     0.356013  Biso 1.000000     H
    H   1.0     0.039293     0.054294     0.857791  Biso 1.000000     H
    H   1.0     0.039469     0.555456     0.356013  Biso 1.000000     H
    H   1.0     0.039296     0.554283     0.857791  Biso 1.000000     H
    H   1.0     0.539480     0.055467     0.356013  Biso 1.000000     H
    H   1.0     0.539307     0.054294     0.857791  Biso 1.000000     H
    H   1.0     0.539483     0.555456     0.356013  Biso 1.000000     H
    H   1.0     0.539310     0.554283     0.857791  Biso 1.000000     H
    H   1.0     0.218337     0.068536     0.478767  Biso 1.000000     H
    H   1.0     0.218367     0.068425     0.979297  Biso 1.000000     H
    H   1.0     0.218340     0.568526     0.478767  Biso 1.000000     H
    H   1.0     0.218370     0.568415     0.979297  Biso 1.000000     H
    H   1.0     0.718351     0.068536     0.478767  Biso 1.000000     H
    H   1.0     0.718381     0.068425     0.979297  Biso 1.000000     H
    H   1.0     0.718354     0.568526     0.478767  Biso 1.000000     H
    H   1.0     0.718384     0.568415     0.979297  Biso 1.000000     H
    H   1.0     0.363123     0.382889     0.417937  Biso 1.000000     H
    H   1.0     0.362280     0.383459     0.918937  Biso 1.000000     H
    H   1.0     0.363126     0.882879     0.417938  Biso 1.000000     H
    H   1.0     0.362283     0.883448     0.918937  Biso 1.000000     H
    H   1.0     0.863137     0.382889     0.417937  Biso 1.000000     H
    H   1.0     0.862294     0.383459     0.918937  Biso 1.000000     H
    H   1.0     0.863140     0.882879     0.417938  Biso 1.000000     H
    H   1.0     0.862297     0.883448     0.918937  Biso 1.000000     H
    H   1.0     0.324353     0.410622     0.317921  Biso 1.000000     H
    H   1.0     0.324329     0.410045     0.818660  Biso 1.000000     H
    H   1.0     0.324356     0.910612     0.317921  Biso 1.000000     H
    H   1.0     0.324332     0.910034     0.818660  Biso 1.000000     H
    H   1.0     0.824367     0.410622     0.317921  Biso 1.000000     H
    H   1.0     0.824343     0.410044     0.818660  Biso 1.000000     H
    H   1.0     0.824370     0.910612     0.317921  Biso 1.000000     H
    H   1.0     0.824346     0.910034     0.818660  Biso 1.000000     H
    H   1.0     0.460749     0.304437     0.391963  Biso 1.000000     H
    H   1.0     0.460640     0.305080     0.894089  Biso 1.000000     H
    H   1.0     0.460753     0.804427     0.391963  Biso 1.000000     H
    H   1.0     0.460643     0.805069     0.894089  Biso 1.000000     H
    H   1.0     0.960764     0.304437     0.391963  Biso 1.000000     H
    H   1.0     0.960654     0.305080     0.894089  Biso 1.000000     H
    H   1.0     0.960767     0.804427     0.391963  Biso 1.000000     H
    H   1.0     0.960657     0.805069     0.894089  Biso 1.000000     H
    H   1.0     0.281607     0.318918     0.270329  Biso 1.000000     H
    H   1.0     0.281735     0.317812     0.771642  Biso 1.000000     H
    H   1.0     0.281610     0.818908     0.270329  Biso 1.000000     H
    H   1.0     0.281738     0.817802     0.771642  Biso 1.000000     H
    H   1.0     0.781621     0.318918     0.270329  Biso 1.000000     H
    H   1.0     0.781749     0.317812     0.771642  Biso 1.000000     H
    H   1.0     0.781624     0.818908     0.270329  Biso 1.000000     H
    H   1.0     0.781752     0.817802     0.771642  Biso 1.000000     H
    H   1.0     0.112270     0.366522     0.081069  Biso 1.000000     H
    H   1.0     0.113117     0.367092     0.582068  Biso 1.000000     H
    H   1.0     0.112273     0.866511     0.081069  Biso 1.000000     H
    H   1.0     0.113120     0.867082     0.582068  Biso 1.000000     H
    H   1.0     0.612284     0.366522     0.081069  Biso 1.000000     H
    H   1.0     0.613131     0.367092     0.582068  Biso 1.000000     H
    H   1.0     0.612287     0.866511     0.081069  Biso 1.000000     H
    H   1.0     0.613134     0.867082     0.582068  Biso 1.000000     H
    H   1.0     0.074320     0.339938     0.181347  Biso 1.000000     H
    H   1.0     0.074347     0.339360     0.682084  Biso 1.000000     H
    H   1.0     0.074323     0.839928     0.181347  Biso 1.000000     H
    H   1.0     0.074350     0.839350     0.682085  Biso 1.000000     H
    H   1.0     0.574334     0.339938     0.181347  Biso 1.000000     H
    H   1.0     0.574361     0.339360     0.682084  Biso 1.000000     H
    H   1.0     0.574337     0.839928     0.181347  Biso 1.000000     H
    H   1.0     0.574364     0.839350     0.682085  Biso 1.000000     H
    H   1.0     0.210631     0.444899     0.105915  Biso 1.000000     H
    H   1.0     0.210744     0.445544     0.608042  Biso 1.000000     H
    H   1.0     0.210634     0.944889     0.105915  Biso 1.000000     H
    H   1.0     0.210747     0.945533     0.608042  Biso 1.000000     H
    H   1.0     0.710645     0.444899     0.105915  Biso 1.000000     H
    H   1.0     0.710758     0.445544     0.608042  Biso 1.000000     H
    H   1.0     0.710649     0.944889     0.105915  Biso 1.000000     H
    H   1.0     0.710761     0.945533     0.608042  Biso 1.000000     H
    H   1.0     0.031727     0.432171     0.228363  Biso 1.000000     H
    H   1.0     0.031601     0.431065     0.729676  Biso 1.000000     H
    H   1.0     0.031730     0.932160     0.228364  Biso 1.000000     H
    H   1.0     0.031604     0.931055     0.729676  Biso 1.000000     H
    H   1.0     0.531741     0.432171     0.228363  Biso 1.000000     H
    H   1.0     0.531615     0.431065     0.729676  Biso 1.000000     H
    H   1.0     0.531744     0.932160     0.228364  Biso 1.000000     H
    H   1.0     0.531618     0.931055     0.729676  Biso 1.000000     H
    C   1.0     0.480505     0.190035     0.151000  Biso 1.000000     C
    C   1.0     0.480748     0.189627     0.651298  Biso 1.000000     C
    C   1.0     0.480508     0.690025     0.151000  Biso 1.000000     C
    C   1.0     0.480751     0.689617     0.651298  Biso 1.000000     C
    C   1.0     0.980519     0.190035     0.151000  Biso 1.000000     C
    C   1.0     0.980762     0.189627     0.651298  Biso 1.000000     C
    C   1.0     0.980522     0.690025     0.151000  Biso 1.000000     C
    C   1.0     0.980765     0.689617     0.651298  Biso 1.000000     C
    C   1.0     0.396973     0.162422     0.138028  Biso 1.000000     C
    C   1.0     0.397246     0.161707     0.638806  Biso 1.000000     C
    C   1.0     0.396976     0.662412     0.138028  Biso 1.000000     C
    C   1.0     0.397249     0.661696     0.638806  Biso 1.000000     C
    C   1.0     0.896987     0.162422     0.138028  Biso 1.000000     C
    C   1.0     0.897260     0.161707     0.638806  Biso 1.000000     C
    C   1.0     0.896990     0.662412     0.138028  Biso 1.000000     C
    C   1.0     0.897263     0.661696     0.638806  Biso 1.000000     C
    C   1.0     0.388744     0.136750     0.073078  Biso 1.000000     C
    C   1.0     0.388637     0.136895     0.573586  Biso 1.000000     C
    C   1.0     0.388747     0.636740     0.073078  Biso 1.000000     C
    C   1.0     0.388640     0.636885     0.573586  Biso 1.000000     C
    C   1.0     0.888758     0.136750     0.073078  Biso 1.000000     C
    C   1.0     0.888651     0.136895     0.573586  Biso 1.000000     C
    C   1.0     0.888761     0.636740     0.073078  Biso 1.000000     C
    C   1.0     0.888654     0.636885     0.573586  Biso 1.000000     C
    C   1.0     0.305979     0.113591     0.055324  Biso 1.000000     C
    C   1.0     0.305803     0.114111     0.555648  Biso 1.000000     C
    C   1.0     0.305983     0.613581     0.055324  Biso 1.000000     C
    C   1.0     0.305806     0.614101     0.555648  Biso 1.000000     C
    C   1.0     0.805993     0.113591     0.055324  Biso 1.000000     C
    C   1.0     0.805817     0.114111     0.555648  Biso 1.000000     C
    C   1.0     0.805997     0.613581     0.055324  Biso 1.000000     C
    C   1.0     0.805820     0.614101     0.555648  Biso 1.000000     C
    C   1.0     0.230740     0.060367     0.348705  Biso 1.000000     C
    C   1.0     0.230499     0.059958     0.849004  Biso 1.000000     C
    C   1.0     0.230743     0.560356     0.348705  Biso 1.000000     C
    C   1.0     0.230502     0.559947     0.849004  Biso 1.000000     C
    C   1.0     0.730754     0.060367     0.348705  Biso 1.000000     C
    C   1.0     0.730513     0.059958     0.849004  Biso 1.000000     C
    C   1.0     0.730757     0.560356     0.348705  Biso 1.000000     C
    C   1.0     0.730516     0.559947     0.849004  Biso 1.000000     C
    C   1.0     0.147239     0.088289     0.361197  Biso 1.000000     C
    C   1.0     0.146968     0.087572     0.861976  Biso 1.000000     C
    C   1.0     0.147242     0.588278     0.361197  Biso 1.000000     C
    C   1.0     0.146971     0.587562     0.861976  Biso 1.000000     C
    C   1.0     0.647253     0.088289     0.361197  Biso 1.000000     C
    C   1.0     0.646982     0.087572     0.861976  Biso 1.000000     C
    C   1.0     0.647256     0.588278     0.361197  Biso 1.000000     C
    C   1.0     0.646985     0.587562     0.861976  Biso 1.000000     C
    C   1.0     0.138630     0.113101     0.426417  Biso 1.000000     C
    C   1.0     0.138739     0.113244     0.926927  Biso 1.000000     C
    C   1.0     0.138633     0.613090     0.426417  Biso 1.000000     C
    C   1.0     0.138742     0.613234     0.926927  Biso 1.000000     C
    C   1.0     0.638644     0.113101     0.426417  Biso 1.000000     C
    C   1.0     0.638753     0.113244     0.926927  Biso 1.000000     C
    C   1.0     0.638647     0.613090     0.426417  Biso 1.000000     C
    C   1.0     0.638756     0.613234     0.926927  Biso 1.000000     C
    C   1.0     0.055796     0.135883     0.444356  Biso 1.000000     C
    C   1.0     0.055975     0.136402     0.944681  Biso 1.000000     C
    C   1.0     0.055799     0.635873     0.444356  Biso 1.000000     C
    C   1.0     0.055978     0.636392     0.944681  Biso 1.000000     C
    C   1.0     0.555810     0.135883     0.444356  Biso 1.000000     C
    C   1.0     0.555989     0.136402     0.944681  Biso 1.000000     C
    C   1.0     0.555813     0.635873     0.444356  Biso 1.000000     C
    C   1.0     0.555992     0.636392     0.944681  Biso 1.000000     C
    C   1.0     0.269515     0.310220     0.400698  Biso 1.000000     C
    C   1.0     0.269398     0.310028     0.901512  Biso 1.000000     C
    C   1.0     0.269518     0.810210     0.400698  Biso 1.000000     C
    C   1.0     0.269401     0.810017     0.901513  Biso 1.000000     C
    C   1.0     0.769529     0.310220     0.400698  Biso 1.000000     C
    C   1.0     0.769412     0.310028     0.901513  Biso 1.000000     C
    C   1.0     0.769532     0.810210     0.400698  Biso 1.000000     C
    C   1.0     0.769415     0.810017     0.901513  Biso 1.000000     C
    C   1.0     0.353089     0.337792     0.387665  Biso 1.000000     C
    C   1.0     0.352880     0.337955     0.889006  Biso 1.000000     C
    C   1.0     0.353092     0.837781     0.387665  Biso 1.000000     C
    C   1.0     0.352883     0.837945     0.889007  Biso 1.000000     C
    C   1.0     0.853103     0.337792     0.387665  Biso 1.000000     C
    C   1.0     0.852894     0.337955     0.889006  Biso 1.000000     C
    C   1.0     0.853106     0.837781     0.387665  Biso 1.000000     C
    C   1.0     0.852897     0.837945     0.889007  Biso 1.000000     C
    C   1.0     0.361391     0.363363     0.322641  Biso 1.000000     C
    C   1.0     0.361376     0.362840     0.823776  Biso 1.000000     C
    C   1.0     0.361394     0.863352     0.322641  Biso 1.000000     C
    C   1.0     0.361379     0.862829     0.823776  Biso 1.000000     C
    C   1.0     0.861405     0.363363     0.322641  Biso 1.000000     C
    C   1.0     0.861390     0.362840     0.823776  Biso 1.000000     C
    C   1.0     0.861408     0.863352     0.322641  Biso 1.000000     C
    C   1.0     0.861393     0.862829     0.823776  Biso 1.000000     C
    C   1.0     0.444158     0.386462     0.304728  Biso 1.000000     C
    C   1.0     0.444131     0.385792     0.805828  Biso 1.000000     C
    C   1.0     0.444161     0.886451     0.304728  Biso 1.000000     C
    C   1.0     0.444134     0.885781     0.805828  Biso 1.000000     C
    C   1.0     0.944172     0.386462     0.304728  Biso 1.000000     C
    C   1.0     0.944145     0.385792     0.805828  Biso 1.000000     C
    C   1.0     0.944175     0.886451     0.304728  Biso 1.000000     C
    C   1.0     0.944148     0.885781     0.805828  Biso 1.000000     C
    C   1.0     0.019390     0.439955     0.098492  Biso 1.000000     C
    C   1.0     0.019509     0.439763     0.599307  Biso 1.000000     C
    C   1.0     0.019393     0.939944     0.098492  Biso 1.000000     C
    C   1.0     0.019512     0.939753     0.599307  Biso 1.000000     C
    C   1.0     0.519404     0.439955     0.098492  Biso 1.000000     C
    C   1.0     0.519523     0.439763     0.599307  Biso 1.000000     C
    C   1.0     0.519407     0.939944     0.098492  Biso 1.000000     C
    C   1.0     0.519526     0.939753     0.599307  Biso 1.000000     C
    C   1.0     0.102872     0.412026     0.110999  Biso 1.000000     C
    C   1.0     0.103083     0.412190     0.612340  Biso 1.000000     C
    C   1.0     0.102875     0.912016     0.110999  Biso 1.000000     C
    C   1.0     0.103086     0.912180     0.612340  Biso 1.000000     C
    C   1.0     0.602886     0.412026     0.110999  Biso 1.000000     C
    C   1.0     0.603097     0.412190     0.612340  Biso 1.000000     C
    C   1.0     0.602889     0.912016     0.110999  Biso 1.000000     C
    C   1.0     0.603100     0.912180     0.612340  Biso 1.000000     C
    C   1.0     0.111367     0.387143     0.176230  Biso 1.000000     C
    C   1.0     0.111385     0.386620     0.677365  Biso 1.000000     C
    C   1.0     0.111370     0.887132     0.176230  Biso 1.000000     C
    C   1.0     0.111388     0.886610     0.677365  Biso 1.000000     C
    C   1.0     0.611381     0.387143     0.176230  Biso 1.000000     C
    C   1.0     0.611399     0.386620     0.677365  Biso 1.000000     C
    C   1.0     0.611384     0.887132     0.176230  Biso 1.000000     C
    C   1.0     0.611402     0.886610     0.677365  Biso 1.000000     C
    C   1.0     0.194123     0.364191     0.194177  Biso 1.000000     C
    C   1.0     0.194152     0.363521     0.695278  Biso 1.000000     C
    C   1.0     0.194126     0.864180     0.194177  Biso 1.000000     C
    C   1.0     0.194155     0.863511     0.695278  Biso 1.000000     C
    C   1.0     0.694137     0.364191     0.194177  Biso 1.000000     C
    C   1.0     0.694166     0.363521     0.695278  Biso 1.000000     C
    C   1.0     0.694140     0.864181     0.194177  Biso 1.000000     C
    C   1.0     0.694169     0.863511     0.695278  Biso 1.000000     C
    O   1.0     0.486517     0.250308     0.174333  Biso 1.000000     O
    O   1.0     0.486684     0.249992     0.674455  Biso 1.000000     O
    O   1.0     0.486520     0.750298     0.174333  Biso 1.000000     O
    O   1.0     0.486687     0.749981     0.674455  Biso 1.000000     O
    O   1.0     0.986531     0.250308     0.174333  Biso 1.000000     O
    O   1.0     0.986698     0.249992     0.674455  Biso 1.000000     O
    O   1.0     0.986534     0.750298     0.174333  Biso 1.000000     O
    O   1.0     0.986701     0.749981     0.674455  Biso 1.000000     O
    O   1.0     0.536957     0.149750     0.137669  Biso 1.000000     O
    O   1.0     0.537246     0.149551     0.637632  Biso 1.000000     O
    O   1.0     0.536960     0.649740     0.137669  Biso 1.000000     O
    O   1.0     0.537249     0.649541     0.637632  Biso 1.000000     O
    O   1.0     0.000000     0.149750     0.137669  Biso 1.000000     O
    O   1.0     0.000000     0.149551     0.637632  Biso 1.000000     O
    O   1.0     0.000000     0.649740     0.137669  Biso 1.000000     O
    O   1.0     0.000000     0.649541     0.637632  Biso 1.000000     O
    O   1.0     0.340653     0.216756     0.151225  Biso 1.000000     O
    O   1.0     0.340797     0.215528     0.653233  Biso 1.000000     O
    O   1.0     0.340656     0.716746     0.151225  Biso 1.000000     O
    O   1.0     0.340800     0.715518     0.653233  Biso 1.000000     O
    O   1.0     0.840667     0.216756     0.151225  Biso 1.000000     O
    O   1.0     0.840811     0.215528     0.653233  Biso 1.000000     O
    O   1.0     0.840670     0.716746     0.151225  Biso 1.000000     O
    O   1.0     0.840814     0.715518     0.653233  Biso 1.000000     O
    O   1.0     0.410632     0.189347     0.029678  Biso 1.000000     O
    O   1.0     0.410856     0.189799     0.530547  Biso 1.000000     O
    O   1.0     0.410635     0.689337     0.029678  Biso 1.000000     O
    O   1.0     0.410859     0.689789     0.530547  Biso 1.000000     O
    O   1.0     0.910646     0.189347     0.029678  Biso 1.000000     O
    O   1.0     0.910870     0.189799     0.530547  Biso 1.000000     O
    O   1.0     0.910649     0.689337     0.029678  Biso 1.000000     O
    O   1.0     0.910873     0.689789     0.530547  Biso 1.000000     O
    O   1.0     0.249983     0.114076     0.093001  Biso 1.000000     O
    O   1.0     0.249881     0.114077     0.593375  Biso 1.000000     O
    O   1.0     0.249986     0.614065     0.093001  Biso 1.000000     O
    O   1.0     0.249884     0.614067     0.593375  Biso 1.000000     O
    O   1.0     0.749997     0.114076     0.093001  Biso 1.000000     O
    O   1.0     0.749895     0.114077     0.593375  Biso 1.000000     O
    O   1.0     0.750000     0.614065     0.093001  Biso 1.000000     O
    O   1.0     0.749898     0.614067     0.593375  Biso 1.000000     O
    O   1.0     0.299963     0.096768     0.499992  Biso 1.000000     O
    O   1.0     0.300249     0.095512     0.999839  Biso 1.000000     O
    O   1.0     0.299966     0.596757     0.499992  Biso 1.000000     O
    O   1.0     0.300252     0.595502     0.999839  Biso 1.000000     O
    O   1.0     0.799977     0.096768     0.499992  Biso 1.000000     O
    O   1.0     0.800263     0.095512     0.999839  Biso 1.000000     O
    O   1.0     0.799980     0.596757     0.499992  Biso 1.000000     O
    O   1.0     0.800266     0.595502     0.999839  Biso 1.000000     O
    O   1.0     0.236675     0.000001     0.325550  Biso 1.000000     O
    O   1.0     0.236510    -0.000316     0.825672  Biso 1.000000     O
    O   1.0     0.236678     0.499991     0.325550  Biso 1.000000     O
    O   1.0     0.236513     0.499674     0.825672  Biso 1.000000     O
    O   1.0     0.736689     0.000001     0.325550  Biso 1.000000     O
    O   1.0     0.736524    -0.000316     0.825672  Biso 1.000000     O
    O   1.0     0.736692     0.499991     0.325550  Biso 1.000000     O
    O   1.0     0.736527     0.499674     0.825672  Biso 1.000000     O
    O   1.0     0.287239     0.100441     0.362372  Biso 1.000000     O
    O   1.0     0.286951     0.100242     0.862335  Biso 1.000000     O
    O   1.0     0.287242     0.600431     0.362372  Biso 1.000000     O
    O   1.0     0.286954     0.600232     0.862335  Biso 1.000000     O
    O   1.0     0.787253     0.100441     0.362372  Biso 1.000000     O
    O   1.0     0.786965     0.100242     0.862335  Biso 1.000000     O
    O   1.0     0.787256     0.600431     0.362372  Biso 1.000000     O
    O   1.0     0.786968     0.600232     0.862335  Biso 1.000000     O
    O   1.0     0.090789     0.034469     0.346770  Biso 1.000000     O
    O   1.0     0.090646     0.033239     0.848779  Biso 1.000000     O
    O   1.0     0.090792     0.534458     0.346770  Biso 1.000000     O
    O   1.0     0.090649     0.533228     0.848779  Biso 1.000000     O
    O   1.0     0.590803     0.034469     0.346770  Biso 1.000000     O
    O   1.0     0.590660     0.033239     0.848779  Biso 1.000000     O
    O   1.0     0.590806     0.534458     0.346770  Biso 1.000000     O
    O   1.0     0.590663     0.533228     0.848779  Biso 1.000000     O
    O   1.0     0.160850     0.060196     0.469455  Biso 1.000000     O
    O   1.0     0.160627     0.060646     0.970326  Biso 1.000000     O
    O   1.0     0.160853     0.560185     0.469455  Biso 1.000000     O
    O   1.0     0.160630     0.560636     0.970326  Biso 1.000000     O
    O   1.0     0.660864     0.060196     0.469455  Biso 1.000000     O
    O   1.0     0.660641     0.060646     0.970326  Biso 1.000000     O
    O   1.0     0.660867     0.560185     0.469455  Biso 1.000000     O
    O   1.0     0.660644     0.560636     0.970326  Biso 1.000000     O
    O   1.0     0.499888     0.135918     0.406629  Biso 1.000000     O
    O   1.0     0.499992     0.135918     0.907004  Biso 1.000000     O
    O   1.0     0.499891     0.635907     0.406629  Biso 1.000000     O
    O   1.0     0.499995     0.635908     0.907004  Biso 1.000000     O
    O   1.0     0.999902     0.135918     0.406629  Biso 1.000000     O
    O   1.0     0.000000     0.135918     0.907004  Biso 1.000000     O
    O   1.0     0.999905     0.635907     0.406629  Biso 1.000000     O
    O   1.0     0.000000     0.635908     0.907004  Biso 1.000000     O
    O   1.0     0.050241     0.154481     0.000166  Biso 1.000000     O
    O   1.0     0.049956     0.153226     0.500012  Biso 1.000000     O
    O   1.0     0.050244     0.654470     0.000166  Biso 1.000000     O
    O   1.0     0.049959     0.653216     0.500012  Biso 1.000000     O
    O   1.0     0.550255     0.154481     0.000166  Biso 1.000000     O
    O   1.0     0.549970     0.153226     0.500012  Biso 1.000000     O
    O   1.0     0.550258     0.654470     0.000166  Biso 1.000000     O
    O   1.0     0.549973     0.653216     0.500012  Biso 1.000000     O
    O   1.0     0.263521     0.250027     0.424280  Biso 1.000000     O
    O   1.0     0.263399     0.249557     0.924503  Biso 1.000000     O
    O   1.0     0.263524     0.750017     0.424280  Biso 1.000000     O
    O   1.0     0.263402     0.749546     0.924503  Biso 1.000000     O
    O   1.0     0.763535     0.250027     0.424280  Biso 1.000000     O
    O   1.0     0.763413     0.249557     0.924503  Biso 1.000000     O
    O   1.0     0.763538     0.750017     0.424280  Biso 1.000000     O
    O   1.0     0.763416     0.749546     0.924503  Biso 1.000000     O
    O   1.0     0.213062     0.350453     0.387216  Biso 1.000000     O
    O   1.0     0.212946     0.350223     0.887970  Biso 1.000000     O
    O   1.0     0.213065     0.850442     0.387216  Biso 1.000000     O
    O   1.0     0.212950     0.850212     0.887970  Biso 1.000000     O
    O   1.0     0.713076     0.350453     0.387216  Biso 1.000000     O
    O   1.0     0.712960     0.350223     0.887970  Biso 1.000000     O
    O   1.0     0.713079     0.850442     0.387216  Biso 1.000000     O
    O   1.0     0.712964     0.850212     0.887970  Biso 1.000000     O
    O   1.0     0.409381     0.283481     0.401130  Biso 1.000000     O
    O   1.0     0.409317     0.284077     0.903321  Biso 1.000000     O
    O   1.0     0.409384     0.783471     0.401130  Biso 1.000000     O
    O   1.0     0.409320     0.784066     0.903321  Biso 1.000000     O
    O   1.0     0.909395     0.283481     0.401130  Biso 1.000000     O
    O   1.0     0.909331     0.284077     0.903321  Biso 1.000000     O
    O   1.0     0.909398     0.783471     0.401130  Biso 1.000000     O
    O   1.0     0.909334     0.784066     0.903321  Biso 1.000000     O
    O   1.0     0.339286     0.310832     0.279284  Biso 1.000000     O
    O   1.0     0.339365     0.309871     0.780805  Biso 1.000000     O
    O   1.0     0.339289     0.810821     0.279284  Biso 1.000000     O
    O   1.0     0.339368     0.809861     0.780805  Biso 1.000000     O
    O   1.0     0.839300     0.310832     0.279284  Biso 1.000000     O
    O   1.0     0.839379     0.309871     0.780805  Biso 1.000000     O
    O   1.0     0.839303     0.810821     0.279284  Biso 1.000000     O
    O   1.0     0.839382     0.809861     0.780805  Biso 1.000000     O
    O   1.0     0.000272     0.385819     0.342273  Biso 1.000000     O
    O   1.0     0.000054     0.385849     0.843529  Biso 1.000000     O
    O   1.0     0.000275     0.885809     0.342274  Biso 1.000000     O
    O   1.0     0.000058     0.885839     0.843530  Biso 1.000000     O
    O   1.0     0.500286     0.385819     0.342273  Biso 1.000000     O
    O   1.0     0.500069     0.385849     0.843529  Biso 1.000000     O
    O   1.0     0.500289     0.885809     0.342274  Biso 1.000000     O
    O   1.0     0.500072     0.885839     0.843530  Biso 1.000000     O
    O   1.0     0.449784     0.404665     0.249258  Biso 1.000000     O
    O   1.0     0.449913     0.403226     0.750158  Biso 1.000000     O
    O   1.0     0.449787     0.904655     0.249259  Biso 1.000000     O
    O   1.0     0.449916     0.903215     0.750158  Biso 1.000000     O
    O   1.0     0.949798     0.404665     0.249258  Biso 1.000000     O
    O   1.0     0.949927     0.403226     0.750158  Biso 1.000000     O
    O   1.0     0.949802     0.904655     0.249259  Biso 1.000000     O
    O   1.0     0.949930     0.903216     0.750158  Biso 1.000000     O
    O   1.0     0.013392     0.500426     0.075501  Biso 1.000000     O
    O   1.0     0.013517     0.499956     0.575724  Biso 1.000000     O
    O   1.0     0.013395     0.000000     0.075501  Biso 1.000000     O
    O   1.0     0.013520     0.999945     0.575724  Biso 1.000000     O
    O   1.0     0.513406     0.500426     0.075501  Biso 1.000000     O
    O   1.0     0.513531     0.499956     0.575724  Biso 1.000000     O
    O   1.0     0.513409     0.000000     0.075501  Biso 1.000000     O
    O   1.0     0.513534     0.999945     0.575724  Biso 1.000000     O
    O   1.0    -0.037062     0.399760     0.112035  Biso 1.000000     O
    O   1.0    -0.036944     0.399530     0.612788  Biso 1.000000     O
    O   1.0    -0.037059     0.899750     0.112035  Biso 1.000000     O
    O   1.0    -0.036941     0.899520     0.612789  Biso 1.000000     O
    O   1.0     0.462952     0.399760     0.112035  Biso 1.000000     O
    O   1.0     0.463070     0.399530     0.612788  Biso 1.000000     O
    O   1.0     0.462955     0.899750     0.112035  Biso 1.000000     O
    O   1.0     0.463073     0.899520     0.612789  Biso 1.000000     O
    O   1.0     0.159309     0.465903     0.096683  Biso 1.000000     O
    O   1.0     0.159375     0.466501     0.598874  Biso 1.000000     O
    O   1.0     0.159312     0.965893     0.096683  Biso 1.000000     O
    O   1.0     0.159378     0.966490     0.598874  Biso 1.000000     O
    O   1.0     0.659323     0.465903     0.096683  Biso 1.000000     O
    O   1.0     0.659389     0.466501     0.598874  Biso 1.000000     O
    O   1.0     0.659326     0.965893     0.096683  Biso 1.000000     O
    O   1.0     0.659392     0.966490     0.598874  Biso 1.000000     O
    O   1.0     0.089357     0.440112     0.219200  Biso 1.000000     O
    O   1.0     0.089280     0.439152     0.720721  Biso 1.000000     O
    O   1.0     0.089360     0.940102     0.219200  Biso 1.000000     O
    O   1.0     0.089283     0.939141     0.720721  Biso 1.000000     O
    O   1.0     0.589371     0.440112     0.219200  Biso 1.000000     O
    O   1.0     0.589294     0.439152     0.720721  Biso 1.000000     O
    O   1.0     0.589374     0.940102     0.219200  Biso 1.000000     O
    O   1.0     0.589297     0.939141     0.720721  Biso 1.000000     O
    O   1.0     0.250060     0.364134     0.156476  Biso 1.000000     O
    O   1.0     0.250280     0.364165     0.657733  Biso 1.000000     O
    O   1.0     0.250063     0.864123     0.156476  Biso 1.000000     O
    O   1.0     0.250283     0.864154     0.657733  Biso 1.000000     O
    O   1.0     0.750074     0.364134     0.156476  Biso 1.000000     O
    O   1.0     0.750294     0.364165     0.657733  Biso 1.000000     O
    O   1.0     0.750077     0.864123     0.156476  Biso 1.000000     O
    O   1.0     0.750297     0.864154     0.657733  Biso 1.000000     O
    O   1.0     0.199905     0.346757     0.249847  Biso 1.000000     O
    O   1.0     0.199778     0.345317     0.750747  Biso 1.000000     O
    O   1.0     0.199908     0.846747     0.249847  Biso 1.000000     O
    O   1.0     0.199780     0.845307     0.750748  Biso 1.000000     O
    O   1.0     0.699919     0.346757     0.249847  Biso 1.000000     O
    O   1.0     0.699791     0.345317     0.750748  Biso 1.000000     O
    O   1.0     0.699922     0.846747     0.249847  Biso 1.000000     O
    O   1.0     0.699794     0.845307     0.750748  Biso 1.000000     O
   Ca   1.0     0.386640     0.333000     0.174611  Biso 1.000000    Ca
   Ca   1.0     0.386666     0.332378     0.675462  Biso 1.000000    Ca
   Ca   1.0     0.386643     0.832990     0.174612  Biso 1.000000    Ca
   Ca   1.0     0.386669     0.832367     0.675462  Biso 1.000000    Ca
   Ca   1.0     0.886654     0.333000     0.174611  Biso 1.000000    Ca
   Ca   1.0     0.886680     0.332378     0.675462  Biso 1.000000    Ca
   Ca   1.0     0.886657     0.832990     0.174612  Biso 1.000000    Ca
   Ca   1.0     0.886683     0.832367     0.675462  Biso 1.000000    Ca
   Ca   1.0     0.136658     0.417607     0.324543  Biso 1.000000    Ca
   Ca   1.0     0.136634     0.416984     0.825394  Biso 1.000000    Ca
   Ca   1.0     0.136661     0.917596     0.324543  Biso 1.000000    Ca
   Ca   1.0     0.136637     0.916973     0.825394  Biso 1.000000    Ca
   Ca   1.0     0.636672     0.417607     0.324543  Biso 1.000000    Ca
   Ca   1.0     0.636648     0.416984     0.825394  Biso 1.000000    Ca
   Ca   1.0     0.636675     0.917596     0.324543  Biso 1.000000    Ca
   Ca   1.0     0.636651     0.916973     0.825394  Biso 1.000000    Ca
   Ca   1.0     0.363398     0.167384     0.425131  Biso 1.000000    Ca
   Ca   1.0     0.363367     0.167067     0.924988  Biso 1.000000    Ca
   Ca   1.0     0.363401     0.667373     0.425131  Biso 1.000000    Ca
   Ca   1.0     0.363370     0.667057     0.924988  Biso 1.000000    Ca
   Ca   1.0     0.863412     0.167384     0.425131  Biso 1.000000    Ca
   Ca   1.0     0.863381     0.167067     0.924988  Biso 1.000000    Ca
   Ca   1.0     0.863415     0.667373     0.425131  Biso 1.000000    Ca
   Ca   1.0     0.863384     0.667057     0.924988  Biso 1.000000    Ca
   Ca   1.0     0.113358     0.082925     0.075016  Biso 1.000000    Ca
   Ca   1.0     0.113391     0.082609     0.574872  Biso 1.000000    Ca
   Ca   1.0     0.113361     0.582914     0.075016  Biso 1.000000    Ca
   Ca   1.0     0.113394     0.582599     0.574872  Biso 1.000000    Ca
   Ca   1.0     0.613372     0.082925     0.075016  Biso 1.000000    Ca
   Ca   1.0     0.613405     0.082609     0.574872  Biso 1.000000    Ca
   Ca   1.0     0.613375     0.582914     0.075016  Biso 1.000000    Ca
   Ca   1.0     0.613408     0.582599     0.574872  Biso 1.000000    Ca
