#======================================================================

# CRYSTAL DATA

#----------------------------------------------------------------------

data_VESTA_phase_1


_pd_phase_name                         MOF
_cell_length_a                         14.07400
_cell_length_b                         16.94300
_cell_length_c                         16.94300
_cell_angle_alpha                      111.85400
_cell_angle_beta                       91.01800
_cell_angle_gamma                      91.02100
_symmetry_space_group_name_H-M         "P 1"
_symmetry_Int_Tables_number            1

loop_
_symmetry_equiv_pos_as_xyz
   "x, y, z"

loop_
   _atom_site_label
   _atom_site_occupancy
   _atom_site_fract_x
   _atom_site_fract_y
   _atom_site_fract_z
   _atom_site_adp_type
   _atom_site_B_iso_or_equiv
   _atom_site_type_symbol
    H   1.0     0.032245     0.006150     0.142787  Biso 1.000000     H
    H   1.0     0.032244     0.006148     0.642776  Biso 1.000000     H
    H   1.0     0.032243     0.506145     0.142788  Biso 1.000000     H
    H   1.0     0.032242     0.506143     0.642776  Biso 1.000000     H
    H   1.0     0.532231     0.006136     0.142781  Biso 1.000000     H
    H   1.0     0.532235     0.006135     0.642771  Biso 1.000000     H
    H   1.0     0.532225     0.506130     0.142782  Biso 1.000000     H
    H   1.0     0.532229     0.506129     0.642771  Biso 1.000000     H
    H   1.0     0.432214     0.118303     0.219676  Biso 1.000000     H
    H   1.0     0.432217     0.118302     0.719665  Biso 1.000000     H
    H   1.0     0.432209     0.618296     0.219678  Biso 1.000000     H
    H   1.0     0.432212     0.618295     0.719666  Biso 1.000000     H
    H   1.0     0.932179     0.118300     0.219684  Biso 1.000000     H
    H   1.0     0.932182     0.118297     0.719675  Biso 1.000000     H
    H   1.0     0.932173     0.618295     0.219684  Biso 1.000000     H
    H   1.0     0.932176     0.618292     0.719674  Biso 1.000000     H
    H   1.0     0.370661     0.047766     0.258073  Biso 1.000000     H
    H   1.0     0.370661     0.047766     0.758063  Biso 1.000000     H
    H   1.0     0.370658     0.547759     0.258073  Biso 1.000000     H
    H   1.0     0.370658     0.547759     0.758063  Biso 1.000000     H
    H   1.0     0.870637     0.047749     0.258071  Biso 1.000000     H
    H   1.0     0.870641     0.047748     0.758060  Biso 1.000000     H
    H   1.0     0.870630     0.547744     0.258071  Biso 1.000000     H
    H   1.0     0.870635     0.547742     0.758060  Biso 1.000000     H
    H   1.0     0.418992     0.395460     0.206262  Biso 1.000000     H
    H   1.0     0.418993     0.395456     0.706252  Biso 1.000000     H
    H   1.0     0.418986     0.895453     0.206263  Biso 1.000000     H
    H   1.0     0.418987     0.895449     0.706252  Biso 1.000000     H
    H   1.0     0.918992     0.395446     0.206250  Biso 1.000000     H
    H   1.0     0.918996     0.395446     0.706240  Biso 1.000000     H
    H   1.0     0.918988     0.895441     0.206251  Biso 1.000000     H
    H   1.0     0.918992     0.895441     0.706241  Biso 1.000000     H
    H   1.0     0.011390     0.363228     0.131190  Biso 1.000000     H
    H   1.0     0.011392     0.363228     0.631181  Biso 1.000000     H
    H   1.0     0.011385     0.863222     0.131192  Biso 1.000000     H
    H   1.0     0.011387     0.863222     0.631183  Biso 1.000000     H
    H   1.0     0.511351     0.363221     0.131200  Biso 1.000000     H
    H   1.0     0.511354     0.363219     0.631188  Biso 1.000000     H
    H   1.0     0.511346     0.863214     0.131199  Biso 1.000000     H
    H   1.0     0.511349     0.863212     0.631187  Biso 1.000000     H
    H   1.0     0.217775     0.357200     0.493845  Biso 1.000000     H
    H   1.0     0.217779     0.357197     0.993839  Biso 1.000000     H
    H   1.0     0.217768     0.857193     0.493844  Biso 1.000000     H
    H   1.0     0.217772     0.857190     0.993839  Biso 1.000000     H
    H   1.0     0.717767     0.357198     0.493847  Biso 1.000000     H
    H   1.0     0.717766     0.357194     0.993840  Biso 1.000000     H
    H   1.0     0.717764     0.857191     0.493848  Biso 1.000000     H
    H   1.0     0.717764     0.857188     0.993841  Biso 1.000000     H
    H   1.0     0.317794     0.280316     0.381677  Biso 1.000000     H
    H   1.0     0.317794     0.280313     0.881670  Biso 1.000000     H
    H   1.0     0.317790     0.780311     0.381676  Biso 1.000000     H
    H   1.0     0.317789     0.780307     0.881670  Biso 1.000000     H
    H   1.0     0.817791     0.280316     0.381680  Biso 1.000000     H
    H   1.0     0.817791     0.280315     0.881671  Biso 1.000000     H
    H   1.0     0.817786     0.780308     0.381681  Biso 1.000000     H
    H   1.0     0.817786     0.780307     0.881673  Biso 1.000000     H
    H   1.0     0.379352     0.241923     0.452209  Biso 1.000000     H
    H   1.0     0.379351     0.241919     0.952200  Biso 1.000000     H
    H   1.0     0.379349     0.741915     0.452208  Biso 1.000000     H
    H   1.0     0.379348     0.741912     0.952200  Biso 1.000000     H
    H   1.0     0.879346     0.241923     0.452214  Biso 1.000000     H
    H   1.0     0.879349     0.241919     0.952204  Biso 1.000000     H
    H   1.0     0.879339     0.741917     0.452215  Biso 1.000000     H
    H   1.0     0.879343     0.741913     0.952205  Biso 1.000000     H
    H   1.0     0.331006     0.293728     0.104521  Biso 1.000000     H
    H   1.0     0.331008     0.293725     0.604516  Biso 1.000000     H
    H   1.0     0.331003     0.793721     0.104523  Biso 1.000000     H
    H   1.0     0.331005     0.793719     0.604518  Biso 1.000000     H
    H   1.0     0.831005     0.293728     0.104525  Biso 1.000000     H
    H   1.0     0.831003     0.293724     0.604516  Biso 1.000000     H
    H   1.0     0.830999     0.793721     0.104524  Biso 1.000000     H
    H   1.0     0.830998     0.793717     0.604515  Biso 1.000000     H
    H   1.0     0.238640     0.368779     0.136761  Biso 1.000000     H
    H   1.0     0.238640     0.368778     0.636752  Biso 1.000000     H
    H   1.0     0.238635     0.868773     0.136762  Biso 1.000000     H
    H   1.0     0.238635     0.868772     0.636753  Biso 1.000000     H
    H   1.0     0.738636     0.368781     0.136766  Biso 1.000000     H
    H   1.0     0.738636     0.368777     0.636755  Biso 1.000000     H
    H   1.0     0.738631     0.868773     0.136765  Biso 1.000000     H
    H   1.0     0.738632     0.868769     0.636755  Biso 1.000000     H
    H   1.0     0.467772     0.493850     0.357192  Biso 1.000000     H
    H   1.0     0.467776     0.493849     0.857182  Biso 1.000000     H
    H   1.0     0.467770     0.993845     0.357192  Biso 1.000000     H
    H   1.0     0.467774     0.993844     0.857182  Biso 1.000000     H
    H   1.0     0.967763     0.493837     0.357187  Biso 1.000000     H
    H   1.0     0.967762     0.493835     0.857176  Biso 1.000000     H
    H   1.0     0.967757     0.993831     0.357187  Biso 1.000000     H
    H   1.0     0.967756     0.993829     0.857176  Biso 1.000000     H
    H   1.0     0.067826     0.381688     0.280288  Biso 1.000000     H
    H   1.0     0.067829     0.381686     0.780278  Biso 1.000000     H
    H   1.0     0.067821     0.881682     0.280289  Biso 1.000000     H
    H   1.0     0.067824     0.881679     0.780280  Biso 1.000000     H
    H   1.0     0.567791     0.381684     0.280298  Biso 1.000000     H
    H   1.0     0.567794     0.381683     0.780286  Biso 1.000000     H
    H   1.0     0.567785     0.881678     0.280297  Biso 1.000000     H
    H   1.0     0.567788     0.881678     0.780286  Biso 1.000000     H
    H   1.0     0.129366     0.452238     0.241903  Biso 1.000000     H
    H   1.0     0.129370     0.452237     0.741892  Biso 1.000000     H
    H   1.0     0.129363     0.952231     0.241903  Biso 1.000000     H
    H   1.0     0.129367     0.952230     0.741892  Biso 1.000000     H
    H   1.0     0.629347     0.452220     0.241900  Biso 1.000000     H
    H   1.0     0.629346     0.452220     0.741890  Biso 1.000000     H
    H   1.0     0.629340     0.952214     0.241900  Biso 1.000000     H
    H   1.0     0.629340     0.952214     0.741891  Biso 1.000000     H
    H   1.0     0.081011     0.104540     0.293723  Biso 1.000000     H
    H   1.0     0.081015     0.104540     0.793713  Biso 1.000000     H
    H   1.0     0.081005     0.604533     0.293723  Biso 1.000000     H
    H   1.0     0.081009     0.604533     0.793713  Biso 1.000000     H
    H   1.0     0.581014     0.104530     0.293711  Biso 1.000000     H
    H   1.0     0.581015     0.104526     0.793700  Biso 1.000000     H
    H   1.0     0.581010     0.604526     0.293712  Biso 1.000000     H
    H   1.0     0.581011     0.604522     0.793701  Biso 1.000000     H
    H   1.0     0.488653     0.136767     0.368775  Biso 1.000000     H
    H   1.0     0.488656     0.136765     0.868762  Biso 1.000000     H
    H   1.0     0.488647     0.636762     0.368777  Biso 1.000000     H
    H   1.0     0.488650     0.636759     0.868764  Biso 1.000000     H
    H   1.0     0.988615     0.136758     0.368782  Biso 1.000000     H
    H   1.0     0.988617     0.136758     0.868773  Biso 1.000000     H
    H   1.0     0.988610     0.636751     0.368781  Biso 1.000000     H
    H   1.0     0.988612     0.636751     0.868772  Biso 1.000000     H
    H   1.0     0.282241     0.142792     0.006123  Biso 1.000000     H
    H   1.0     0.282240     0.142789     0.506116  Biso 1.000000     H
    H   1.0     0.282235     0.642785     0.006122  Biso 1.000000     H
    H   1.0     0.282234     0.642782     0.506116  Biso 1.000000     H
    H   1.0     0.782229     0.142790     0.006124  Biso 1.000000     H
    H   1.0     0.782233     0.142787     0.506118  Biso 1.000000     H
    H   1.0     0.782226     0.642783     0.006124  Biso 1.000000     H
    H   1.0     0.782230     0.642780     0.506119  Biso 1.000000     H
    H   1.0     0.182216     0.219672     0.118291  Biso 1.000000     H
    H   1.0     0.182216     0.219671     0.618283  Biso 1.000000     H
    H   1.0     0.182212     0.719666     0.118291  Biso 1.000000     H
    H   1.0     0.182212     0.719665     0.618282  Biso 1.000000     H
    H   1.0     0.682213     0.219674     0.118293  Biso 1.000000     H
    H   1.0     0.682212     0.219670     0.618286  Biso 1.000000     H
    H   1.0     0.682208     0.719666     0.118294  Biso 1.000000     H
    H   1.0     0.682208     0.719662     0.618287  Biso 1.000000     H
    H   1.0     0.120658     0.258067     0.047759  Biso 1.000000     H
    H   1.0     0.120661     0.258062     0.547748  Biso 1.000000     H
    H   1.0     0.120655     0.758059     0.047758  Biso 1.000000     H
    H   1.0     0.120659     0.758055     0.547748  Biso 1.000000     H
    H   1.0     0.620657     0.258067     0.047762  Biso 1.000000     H
    H   1.0     0.620655     0.258063     0.547753  Biso 1.000000     H
    H   1.0     0.620650     0.758061     0.047763  Biso 1.000000     H
    H   1.0     0.620649     0.758057     0.547755  Biso 1.000000     H
    H   1.0     0.169003     0.206262     0.395447  Biso 1.000000     H
    H   1.0     0.169002     0.206259     0.895438  Biso 1.000000     H
    H   1.0     0.169000     0.706256     0.395449  Biso 1.000000     H
    H   1.0     0.168999     0.706253     0.895440  Biso 1.000000     H
    H   1.0     0.668999     0.206261     0.395447  Biso 1.000000     H
    H   1.0     0.669001     0.206259     0.895442  Biso 1.000000     H
    H   1.0     0.668993     0.706254     0.395446  Biso 1.000000     H
    H   1.0     0.668995     0.706252     0.895441  Biso 1.000000     H
    H   1.0     0.261370     0.131210     0.363207  Biso 1.000000     H
    H   1.0     0.261371     0.131205     0.863197  Biso 1.000000     H
    H   1.0     0.261366     0.631204     0.363208  Biso 1.000000     H
    H   1.0     0.261366     0.631200     0.863198  Biso 1.000000     H
    H   1.0     0.761367     0.131209     0.363211  Biso 1.000000     H
    H   1.0     0.761366     0.131208     0.863202  Biso 1.000000     H
    H   1.0     0.761363     0.631201     0.363210  Biso 1.000000     H
    H   1.0     0.761362     0.631200     0.863202  Biso 1.000000     H
    C   1.0     0.440503     0.063616     0.238951  Biso 1.000000     C
    C   1.0     0.440503     0.063616     0.738941  Biso 1.000000     C
    C   1.0     0.440501     0.563609     0.238952  Biso 1.000000     C
    C   1.0     0.440500     0.563609     0.738941  Biso 1.000000     C
    C   1.0     0.940477     0.063611     0.238954  Biso 1.000000     C
    C   1.0     0.940482     0.063609     0.738944  Biso 1.000000     C
    C   1.0     0.940469     0.563606     0.238955  Biso 1.000000     C
    C   1.0     0.940475     0.563604     0.738944  Biso 1.000000     C
    C   1.0     0.486952     0.415500     0.187574  Biso 1.000000     C
    C   1.0     0.486952     0.415496     0.687562  Biso 1.000000     C
    C   1.0     0.486945     0.915492     0.187573  Biso 1.000000     C
    C   1.0     0.486946     0.915487     0.687561  Biso 1.000000     C
    C   1.0     0.986947     0.415496     0.187566  Biso 1.000000     C
    C   1.0     0.986952     0.415497     0.687557  Biso 1.000000     C
    C   1.0     0.986944     0.915492     0.187567  Biso 1.000000     C
    C   1.0     0.986949     0.915493     0.687558  Biso 1.000000     C
    C   1.0     0.309507     0.261038     0.436362  Biso 1.000000     C
    C   1.0     0.309505     0.261035     0.936355  Biso 1.000000     C
    C   1.0     0.309505     0.761031     0.436361  Biso 1.000000     C
    C   1.0     0.309502     0.761028     0.936354  Biso 1.000000     C
    C   1.0     0.809501     0.261038     0.436365  Biso 1.000000     C
    C   1.0     0.809505     0.261035     0.936355  Biso 1.000000     C
    C   1.0     0.809494     0.761031     0.436366  Biso 1.000000     C
    C   1.0     0.809498     0.761028     0.936357  Biso 1.000000     C
    C   1.0     0.263046     0.312410     0.084480  Biso 1.000000     C
    C   1.0     0.263048     0.312408     0.584474  Biso 1.000000     C
    C   1.0     0.263043     0.812404     0.084483  Biso 1.000000     C
    C   1.0     0.263045     0.812402     0.584477  Biso 1.000000     C
    C   1.0     0.763044     0.312412     0.084488  Biso 1.000000     C
    C   1.0     0.763043     0.312407     0.584476  Biso 1.000000     C
    C   1.0     0.763038     0.812404     0.084486  Biso 1.000000     C
    C   1.0     0.763037     0.812399     0.584475  Biso 1.000000     C
    C   1.0     0.059525     0.436377     0.261019  Biso 1.000000     C
    C   1.0     0.059530     0.436374     0.761008  Biso 1.000000     C
    C   1.0     0.059523     0.936370     0.261019  Biso 1.000000     C
    C   1.0     0.059528     0.936368     0.761009  Biso 1.000000     C
    C   1.0     0.559505     0.436370     0.261022  Biso 1.000000     C
    C   1.0     0.559504     0.436370     0.761012  Biso 1.000000     C
    C   1.0     0.559497     0.936365     0.261022  Biso 1.000000     C
    C   1.0     0.559496     0.936365     0.761012  Biso 1.000000     C
    C   1.0     0.013055     0.084488     0.312406  Biso 1.000000     C
    C   1.0     0.013059     0.084489     0.812397  Biso 1.000000     C
    C   1.0     0.013049     0.584480     0.312405  Biso 1.000000     C
    C   1.0     0.013053     0.584481     0.812396  Biso 1.000000     C
    C   1.0     0.513055     0.084490     0.312401  Biso 1.000000     C
    C   1.0     0.513055     0.084486     0.812389  Biso 1.000000     C
    C   1.0     0.513051     0.584486     0.312402  Biso 1.000000     C
    C   1.0     0.513052     0.584482     0.812391  Biso 1.000000     C
    C   1.0     0.190502     0.238951     0.063607  Biso 1.000000     C
    C   1.0     0.190506     0.238948     0.563598  Biso 1.000000     C
    C   1.0     0.190500     0.738945     0.063606  Biso 1.000000     C
    C   1.0     0.190504     0.738942     0.563597  Biso 1.000000     C
    C   1.0     0.690503     0.238952     0.063608  Biso 1.000000     C
    C   1.0     0.690500     0.238948     0.563601  Biso 1.000000     C
    C   1.0     0.690496     0.738945     0.063609  Biso 1.000000     C
    C   1.0     0.690493     0.738941     0.563602  Biso 1.000000     C
    C   1.0     0.236964     0.187579     0.415486  Biso 1.000000     C
    C   1.0     0.236963     0.187575     0.915475  Biso 1.000000     C
    C   1.0     0.236961     0.687574     0.415489  Biso 1.000000     C
    C   1.0     0.236960     0.687569     0.915478  Biso 1.000000     C
    C   1.0     0.736959     0.187579     0.415488  Biso 1.000000     C
    C   1.0     0.736961     0.187577     0.915483  Biso 1.000000     C
    C   1.0     0.736953     0.687571     0.415487  Biso 1.000000     C
    C   1.0     0.736955     0.687569     0.915481  Biso 1.000000     C
    N   1.0     0.468904     0.489781     0.163597  Biso 1.000000     N
    N   1.0     0.468911     0.489780     0.663591  Biso 1.000000     N
    N   1.0     0.468903     0.989775     0.163600  Biso 1.000000     N
    N   1.0     0.468910     0.989775     0.663594  Biso 1.000000     N
    N   1.0     0.968899     0.489786     0.163605  Biso 1.000000     N
    N   1.0     0.968896     0.489783     0.663591  Biso 1.000000     N
    N   1.0     0.968891     0.989779     0.163602  Biso 1.000000     N
    N   1.0     0.968888     0.989776     0.663588  Biso 1.000000     N
    N   1.0     0.281097     0.336392     0.010204  Biso 1.000000     N
    N   1.0     0.281094     0.336384     0.510193  Biso 1.000000     N
    N   1.0     0.281088     0.836382     0.010203  Biso 1.000000     N
    N   1.0     0.281085     0.836374     0.510192  Biso 1.000000     N
    N   1.0     0.781080     0.336385     0.010203  Biso 1.000000     N
    N   1.0     0.781087     0.336384     0.510196  Biso 1.000000     N
    N   1.0     0.781080     0.836382     0.010205  Biso 1.000000     N
    N   1.0     0.781086     0.836381     0.510197  Biso 1.000000     N
    N   1.0     0.031111     0.010203     0.336372  Biso 1.000000     N
    N   1.0     0.031108     0.010200     0.836358  Biso 1.000000     N
    N   1.0     0.031111     0.510198     0.336376  Biso 1.000000     N
    N   1.0     0.031108     0.510195     0.836361  Biso 1.000000     N
    N   1.0     0.531097     0.010206     0.336372  Biso 1.000000     N
    N   1.0     0.531104     0.010206     0.836366  Biso 1.000000     N
    N   1.0     0.531088     0.510198     0.336369  Biso 1.000000     N
    N   1.0     0.531095     0.510198     0.836363  Biso 1.000000     N
    N   1.0     0.218920     0.163602     0.489767  Biso 1.000000     N
    N   1.0     0.218927     0.163601     0.989760  Biso 1.000000     N
    N   1.0     0.218911     0.663592     0.489766  Biso 1.000000     N
    N   1.0     0.218918     0.663591     0.989759  Biso 1.000000     N
    N   1.0     0.718914     0.163602     0.489770  Biso 1.000000     N
    N   1.0     0.718911     0.163594     0.989759  Biso 1.000000     N
    N   1.0     0.718913     0.663599     0.489771  Biso 1.000000     N
    N   1.0     0.718910     0.663590     0.989761  Biso 1.000000     N
   Br   1.0     0.211764     0.047540     0.123448  Biso 1.000000    Br
   Br   1.0     0.211765     0.047537     0.623440  Biso 1.000000    Br
   Br   1.0     0.211760     0.547534     0.123448  Biso 1.000000    Br
   Br   1.0     0.211761     0.547531     0.623440  Biso 1.000000    Br
   Br   1.0     0.711749     0.047538     0.123448  Biso 1.000000    Br
   Br   1.0     0.711751     0.047534     0.623440  Biso 1.000000    Br
   Br   1.0     0.711743     0.547533     0.123448  Biso 1.000000    Br
   Br   1.0     0.711746     0.547528     0.623440  Biso 1.000000    Br
   Br   1.0     0.038262     0.376532     0.452442  Biso 1.000000    Br
   Br   1.0     0.038264     0.376528     0.952432  Biso 1.000000    Br
   Br   1.0     0.038257     0.876526     0.452442  Biso 1.000000    Br
   Br   1.0     0.038259     0.876522     0.952433  Biso 1.000000    Br
   Br   1.0     0.538247     0.376532     0.452445  Biso 1.000000    Br
   Br   1.0     0.538248     0.376528     0.952436  Biso 1.000000    Br
   Br   1.0     0.538243     0.876526     0.452445  Biso 1.000000    Br
   Br   1.0     0.538244     0.876523     0.952436  Biso 1.000000    Br
   Br   1.0     0.288256     0.452451     0.376523  Biso 1.000000    Br
   Br   1.0     0.288259     0.452447     0.876515  Biso 1.000000    Br
   Br   1.0     0.288252     0.952445     0.376523  Biso 1.000000    Br
   Br   1.0     0.288255     0.952440     0.876515  Biso 1.000000    Br
   Br   1.0     0.788243     0.452448     0.376523  Biso 1.000000    Br
   Br   1.0     0.788244     0.452445     0.876515  Biso 1.000000    Br
   Br   1.0     0.788237     0.952442     0.376523  Biso 1.000000    Br
   Br   1.0     0.788239     0.952439     0.876515  Biso 1.000000    Br
   Br   1.0     0.461761     0.123458     0.047527  Biso 1.000000    Br
   Br   1.0     0.461762     0.123455     0.547518  Biso 1.000000    Br
   Br   1.0     0.461756     0.623452     0.047527  Biso 1.000000    Br
   Br   1.0     0.461756     0.623449     0.547518  Biso 1.000000    Br
   Br   1.0     0.961745     0.123458     0.047531  Biso 1.000000    Br
   Br   1.0     0.961747     0.123454     0.547521  Biso 1.000000    Br
   Br   1.0     0.961741     0.623452     0.047530  Biso 1.000000    Br
   Br   1.0     0.961743     0.623449     0.547521  Biso 1.000000    Br
   Cd   1.0     0.375001     0.463800     0.036190  Biso 1.000000    Cd
   Cd   1.0     0.375004     0.463795     0.536181  Biso 1.000000    Cd
   Cd   1.0     0.374996     0.963793     0.036191  Biso 1.000000    Cd
   Cd   1.0     0.374998     0.963788     0.536181  Biso 1.000000    Cd
   Cd   1.0     0.874988     0.463800     0.036191  Biso 1.000000    Cd
   Cd   1.0     0.874988     0.463797     0.536182  Biso 1.000000    Cd
   Cd   1.0     0.874985     0.963794     0.036191  Biso 1.000000    Cd
   Cd   1.0     0.874985     0.963790     0.536181  Biso 1.000000    Cd
   Cd   1.0     0.125019     0.036190     0.463782  Biso 1.000000    Cd
   Cd   1.0     0.125019     0.036186     0.963772  Biso 1.000000    Cd
   Cd   1.0     0.125014     0.536183     0.463782  Biso 1.000000    Cd
   Cd   1.0     0.125014     0.536179     0.963772  Biso 1.000000    Cd
   Cd   1.0     0.625004     0.036191     0.463782  Biso 1.000000    Cd
   Cd   1.0     0.625006     0.036186     0.963773  Biso 1.000000    Cd
   Cd   1.0     0.625000     0.536185     0.463782  Biso 1.000000    Cd
   Cd   1.0     0.625003     0.536180     0.963772  Biso 1.000000    Cd
