#======================================================================

# CRYSTAL DATA

#----------------------------------------------------------------------

data_VESTA_phase_1


_pd_phase_name                         MOF
_cell_length_a                         21.64400
_cell_length_b                         13.83000
_cell_length_c                         13.69000
_cell_angle_alpha                      90.48700
_cell_angle_beta                       89.96700
_cell_angle_gamma                      90.27000
_symmetry_space_group_name_H-M         "P 1"
_symmetry_Int_Tables_number            1

loop_
_symmetry_equiv_pos_as_xyz
   "x, y, z"

loop_
   _atom_site_label
   _atom_site_occupancy
   _atom_site_fract_x
   _atom_site_fract_y
   _atom_site_fract_z
   _atom_site_adp_type
   _atom_site_B_iso_or_equiv
   _atom_site_type_symbol
    H   1.0     0.257455     0.470485     0.769306  Biso 1.000000     H
    H   1.0     0.757750     0.470857     0.769521  Biso 1.000000     H
    H   1.0     0.251458     0.679796     0.536019  Biso 1.000000     H
    H   1.0     0.751062     0.679563     0.535734  Biso 1.000000     H
    H   1.0     0.342742     0.598325     0.463638  Biso 1.000000     H
    H   1.0     0.842058     0.597697     0.462773  Biso 1.000000     H
    H   1.0     0.388304     0.455117     0.547397  Biso 1.000000     H
    H   1.0     0.887810     0.454673     0.546497  Biso 1.000000     H
    H   1.0     0.201200     0.756864     0.644805  Biso 1.000000     H
    H   1.0     0.700450     0.756865     0.644331  Biso 1.000000     H
    H   1.0     0.140215     0.676827     0.607925  Biso 1.000000     H
    H   1.0     0.639903     0.675710     0.608188  Biso 1.000000     H
    H   1.0     0.258934     0.023729     0.729441  Biso 1.000000     H
    H   1.0     0.757871     0.024125     0.729681  Biso 1.000000     H
    H   1.0     0.252184     0.817186     0.965271  Biso 1.000000     H
    H   1.0     0.751343     0.817177     0.965154  Biso 1.000000     H
    H   1.0     0.341570     0.903635     0.039540  Biso 1.000000     H
    H   1.0     0.840861     0.903369     0.039293  Biso 1.000000     H
    H   1.0     0.386490     0.047740     0.955307  Biso 1.000000     H
    H   1.0     0.885759     0.047569     0.955145  Biso 1.000000     H
    H   1.0     0.201583     0.736372     0.855528  Biso 1.000000     H
    H   1.0     0.701066     0.736494     0.855358  Biso 1.000000     H
    H   1.0     0.142074     0.818178     0.892639  Biso 1.000000     H
    H   1.0     0.641246     0.817677     0.892601  Biso 1.000000     H
    H   1.0     0.006188     0.229345     0.972481  Biso 1.000000     H
    H   1.0     0.507021     0.229215     0.972958  Biso 1.000000     H
    H   1.0    -0.003150     0.464201     0.183191  Biso 1.000000     H
    H   1.0     0.497445     0.464660     0.182980  Biso 1.000000     H
    H   1.0     0.088541     0.536146     0.102208  Biso 1.000000     H
    H   1.0     0.588912     0.536786     0.101506  Biso 1.000000     H
    H   1.0     0.135891     0.451482     0.958313  Biso 1.000000     H
    H   1.0     0.636266     0.451914     0.957754  Biso 1.000000     H
    H   1.0     0.446535     0.358177     0.260934  Biso 1.000000     H
    H   1.0     0.946101     0.357551     0.260781  Biso 1.000000     H
    H   1.0     0.387162     0.392234     0.177346  Biso 1.000000     H
    H   1.0     0.886592     0.392111     0.177670  Biso 1.000000     H
    H   1.0     0.007312     0.272726     0.525174  Biso 1.000000     H
    H   1.0     0.508308     0.273075     0.524999  Biso 1.000000     H
    H   1.0    -0.005959     0.038598     0.314116  Biso 1.000000     H
    H   1.0     0.494414     0.038609     0.314422  Biso 1.000000     H
    H   1.0     0.084892     0.964548     0.394164  Biso 1.000000     H
    H   1.0     0.585035     0.964111     0.394662  Biso 1.000000     H
    H   1.0     0.133733     0.047757     0.537982  Biso 1.000000     H
    H   1.0     0.634072     0.047252     0.538353  Biso 1.000000     H
    H   1.0     0.445159     0.146761     0.237440  Biso 1.000000     H
    H   1.0     0.944696     0.146581     0.237219  Biso 1.000000     H
    H   1.0     0.385501     0.113418     0.321290  Biso 1.000000     H
    H   1.0     0.884956     0.112897     0.320780  Biso 1.000000     H
    H   1.0     0.242334     0.529176     0.230463  Biso 1.000000     H
    H   1.0     0.742565     0.529533     0.230653  Biso 1.000000     H
    H   1.0     0.248993     0.320455     0.464239  Biso 1.000000     H
    H   1.0     0.748586     0.320253     0.463968  Biso 1.000000     H
    H   1.0     0.158001     0.402336     0.537194  Biso 1.000000     H
    H   1.0     0.657310     0.401737     0.536364  Biso 1.000000     H
    H   1.0     0.112264     0.545372     0.453473  Biso 1.000000     H
    H   1.0     0.611740     0.544935     0.452596  Biso 1.000000     H
    H   1.0     0.299595     0.243146     0.355638  Biso 1.000000     H
    H   1.0     0.798829     0.243165     0.355171  Biso 1.000000     H
    H   1.0     0.360152     0.324279     0.391789  Biso 1.000000     H
    H   1.0     0.859813     0.323209     0.392040  Biso 1.000000     H
    H   1.0     0.242155     0.975902     0.270288  Biso 1.000000     H
    H   1.0     0.741089     0.976303     0.270529  Biso 1.000000     H
    H   1.0     0.248690     0.182853     0.034819  Biso 1.000000     H
    H   1.0     0.747842     0.182841     0.034695  Biso 1.000000     H
    H   1.0     0.159172     0.096666     0.960674  Biso 1.000000     H
    H   1.0     0.658458     0.096387     0.960423  Biso 1.000000     H
    H   1.0     0.114272     0.952465     0.044817  Biso 1.000000     H
    H   1.0     0.613539     0.952282     0.044655  Biso 1.000000     H
    H   1.0     0.298983     0.263528     0.144608  Biso 1.000000     H
    H   1.0     0.798447     0.263656     0.144436  Biso 1.000000     H
    H   1.0     0.358792     0.182323     0.107370  Biso 1.000000     H
    H   1.0     0.857955     0.181843     0.107334  Biso 1.000000     H
    H   1.0     0.493014     0.770807     0.026997  Biso 1.000000     H
    H   1.0     0.993836     0.770685     0.027481  Biso 1.000000     H
    H   1.0     0.502598     0.535344     0.816997  Biso 1.000000     H
    H   1.0     0.000000     0.535814     0.816788  Biso 1.000000     H
    H   1.0     0.411139     0.463211     0.898487  Biso 1.000000     H
    H   1.0     0.911495     0.463866     0.897775  Biso 1.000000     H
    H   1.0     0.363785     0.548088     0.042234  Biso 1.000000     H
    H   1.0     0.864140     0.548537     0.041661  Biso 1.000000     H
    H   1.0     0.053932     0.642463     0.739193  Biso 1.000000     H
    H   1.0     0.553519     0.641810     0.739035  Biso 1.000000     H
    H   1.0     0.113442     0.607917     0.822308  Biso 1.000000     H
    H   1.0     0.612885     0.607782     0.822650  Biso 1.000000     H
    H   1.0     0.491723     0.726932     0.474981  Biso 1.000000     H
    H   1.0     0.992705     0.727290     0.474813  Biso 1.000000     H
    H   1.0     0.505628     0.961398     0.685556  Biso 1.000000     H
    H   1.0     0.000000     0.961428     0.685858  Biso 1.000000     H
    H   1.0     0.415013     0.035908     0.605311  Biso 1.000000     H
    H   1.0     0.915138     0.035487     0.605795  Biso 1.000000     H
    H   1.0     0.365973     0.952772     0.461619  Biso 1.000000     H
    H   1.0     0.866300     0.952277     0.461975  Biso 1.000000     H
    H   1.0     0.055334     0.853449     0.762761  Biso 1.000000     H
    H   1.0     0.554896     0.853255     0.762529  Biso 1.000000     H
    H   1.0     0.115066     0.887123     0.679183  Biso 1.000000     H
    H   1.0     0.614547     0.886575     0.678658  Biso 1.000000     H
    C   1.0     0.262519     0.292931     0.869583  Biso 1.000000     C
    C   1.0     0.763108     0.293500     0.869606  Biso 1.000000     C
    C   1.0     0.275827     0.500509     0.701818  Biso 1.000000     C
    C   1.0     0.775929     0.500665     0.701804  Biso 1.000000     C
    C   1.0     0.248369     0.582358     0.660526  Biso 1.000000     C
    C   1.0     0.748367     0.582449     0.660504  Biso 1.000000     C
    C   1.0     0.271679     0.618081     0.572608  Biso 1.000000     C
    C   1.0     0.771371     0.617883     0.572273  Biso 1.000000     C
    C   1.0     0.322701     0.571868     0.531408  Biso 1.000000     C
    C   1.0     0.822216     0.571455     0.530770  Biso 1.000000     C
    C   1.0     0.348116     0.492278     0.577147  Biso 1.000000     C
    C   1.0     0.847756     0.491967     0.576531  Biso 1.000000     C
    C   1.0     0.168171     0.701840     0.670272  Biso 1.000000     C
    C   1.0     0.667802     0.701511     0.670290  Biso 1.000000     C
    C   1.0     0.262598     0.205776     0.629326  Biso 1.000000     C
    C   1.0     0.763240     0.206320     0.628792  Biso 1.000000     C
    C   1.0     0.276700     0.995442     0.797958  Biso 1.000000     C
    C   1.0     0.775716     0.995692     0.798083  Biso 1.000000     C
    C   1.0     0.249583     0.913042     0.839607  Biso 1.000000     C
    C   1.0     0.748639     0.913217     0.839648  Biso 1.000000     C
    C   1.0     0.272147     0.879421     0.928669  Biso 1.000000     C
    C   1.0     0.771298     0.879440     0.928592  Biso 1.000000     C
    C   1.0     0.322084     0.928370     0.970810  Biso 1.000000     C
    C   1.0     0.821305     0.928265     0.970671  Biso 1.000000     C
    C   1.0     0.347166     0.008435     0.924764  Biso 1.000000     C
    C   1.0     0.846360     0.008386     0.924686  Biso 1.000000     C
    C   1.0     0.169348     0.792084     0.830088  Biso 1.000000     C
    C   1.0     0.668620     0.791939     0.830010  Biso 1.000000     C
    C   1.0     0.012199     0.131265     0.791699  Biso 1.000000     C
    C   1.0     0.512901     0.131550     0.791420  Biso 1.000000     C
    C   1.0     0.023912     0.297056     0.003023  Biso 1.000000     C
    C   1.0     0.524644     0.297101     0.003246  Biso 1.000000     C
    C   1.0    -0.004538     0.338970     0.085215  Biso 1.000000     C
    C   1.0     0.496178     0.339141     0.085376  Biso 1.000000     C
    C   1.0     0.017939     0.427203     0.121328  Biso 1.000000     C
    C   1.0     0.518528     0.427583     0.121157  Biso 1.000000     C
    C   1.0     0.069156     0.468149     0.075314  Biso 1.000000     C
    C   1.0     0.569614     0.468629     0.074868  Biso 1.000000     C
    C   1.0     0.095572     0.421844     0.995388  Biso 1.000000     C
    C   1.0     0.596041     0.422196     0.995022  Biso 1.000000     C
    C   1.0     0.414524     0.331303     0.204384  Biso 1.000000     C
    C   1.0     0.913939     0.330991     0.204296  Biso 1.000000     C
    C   1.0     0.013492     0.368762     0.706817  Biso 1.000000     C
    C   1.0     0.513181     0.368194     0.706929  Biso 1.000000     C
    C   1.0     0.023966     0.204696     0.494424  Biso 1.000000     C
    C   1.0     0.524766     0.204857     0.494410  Biso 1.000000     C
    C   1.0    -0.005271     0.163592     0.412379  Biso 1.000000     C
    C   1.0     0.495394     0.163778     0.412477  Biso 1.000000     C
    C   1.0     0.015846     0.074984     0.375881  Biso 1.000000     C
    C   1.0     0.516288     0.074969     0.376143  Biso 1.000000     C
    C   1.0     0.066568     0.032849     0.421403  Biso 1.000000     C
    C   1.0     0.566892     0.032585     0.421762  Biso 1.000000     C
    C   1.0     0.093809     0.078377     0.501233  Biso 1.000000     C
    C   1.0     0.594249     0.078084     0.501512  Biso 1.000000     C
    C   1.0     0.413617     0.173959     0.294325  Biso 1.000000     C
    C   1.0     0.913028     0.173584     0.294022  Biso 1.000000     C
    C   1.0     0.236930     0.706538     0.130343  Biso 1.000000     C
    C   1.0     0.737512     0.707081     0.130395  Biso 1.000000     C
    C   1.0     0.224148     0.499368     0.298176  Biso 1.000000     C
    C   1.0     0.724199     0.499519     0.298151  Biso 1.000000     C
    C   1.0     0.251701     0.417576     0.339474  Biso 1.000000     C
    C   1.0     0.751661     0.417675     0.339446  Biso 1.000000     C
    C   1.0     0.228691     0.382142     0.427701  Biso 1.000000     C
    C   1.0     0.728361     0.381965     0.427376  Biso 1.000000     C
    C   1.0     0.177848     0.428578     0.469202  Biso 1.000000     C
    C   1.0     0.677344     0.428185     0.468585  Biso 1.000000     C
    C   1.0     0.152316     0.508072     0.423441  Biso 1.000000     C
    C   1.0     0.651925     0.507769     0.422841  Biso 1.000000     C
    C   1.0     0.332249     0.298493     0.329685  Biso 1.000000     C
    C   1.0     0.831856     0.298189     0.329696  Biso 1.000000     C
    C   1.0     0.236796     0.793733     0.371181  Biso 1.000000     C
    C   1.0     0.737433     0.794229     0.370641  Biso 1.000000     C
    C   1.0     0.224311     0.004336     0.201886  Biso 1.000000     C
    C   1.0     0.723325     0.004587     0.202009  Biso 1.000000     C
    C   1.0     0.251391     0.086811     0.160323  Biso 1.000000     C
    C   1.0     0.750441     0.086987     0.160360  Biso 1.000000     C
    C   1.0     0.228734     0.120590     0.071378  Biso 1.000000     C
    C   1.0     0.727879     0.120606     0.071296  Biso 1.000000     C
    C   1.0     0.178727     0.071768     0.029297  Biso 1.000000     C
    C   1.0     0.677944     0.071654     0.029155  Biso 1.000000     C
    C   1.0     0.153670     0.991646     0.075279  Biso 1.000000     C
    C   1.0     0.652862     0.991588     0.075200  Biso 1.000000     C
    C   1.0     0.331421     0.208073     0.169960  Biso 1.000000     C
    C   1.0     0.830679     0.207942     0.169881  Biso 1.000000     C
    C   1.0     0.487128     0.868474     0.208546  Biso 1.000000     C
    C   1.0     0.987829     0.868757     0.208270  Biso 1.000000     C
    C   1.0     0.475395     0.702914     0.996717  Biso 1.000000     C
    C   1.0     0.976115     0.702970     0.996944  Biso 1.000000     C
    C   1.0     0.503860     0.660871     0.914589  Biso 1.000000     C
    C   1.0     0.000000     0.661052     0.914756  Biso 1.000000     C
    C   1.0     0.481516     0.572423     0.878820  Biso 1.000000     C
    C   1.0     0.982094     0.572815     0.878648  Biso 1.000000     C
    C   1.0     0.430434     0.531372     0.925117  Biso 1.000000     C
    C   1.0     0.930878     0.531868     0.924664  Biso 1.000000     C
    C   1.0     0.404006     0.577809     0.004961  Biso 1.000000     C
    C   1.0     0.904459     0.578175     0.004586  Biso 1.000000     C
    C   1.0     0.086091     0.669031     0.795677  Biso 1.000000     C
    C   1.0     0.585521     0.668702     0.795589  Biso 1.000000     C
    C   1.0     0.486844     0.631826     0.293036  Biso 1.000000     C
    C   1.0     0.986579     0.631278     0.293150  Biso 1.000000     C
    C   1.0     0.475269     0.795152     0.505568  Biso 1.000000     C
    C   1.0     0.976055     0.795325     0.505556  Biso 1.000000     C
    C   1.0     0.504643     0.836229     0.587501  Biso 1.000000     C
    C   1.0     0.000000     0.836430     0.587601  Biso 1.000000     C
    C   1.0     0.483754     0.925040     0.623834  Biso 1.000000     C
    C   1.0     0.984177     0.925043     0.624091  Biso 1.000000     C
    C   1.0     0.433153     0.967431     0.578212  Biso 1.000000     C
    C   1.0     0.933459     0.967182     0.578562  Biso 1.000000     C
    C   1.0     0.405794     0.921935     0.498461  Biso 1.000000     C
    C   1.0     0.906220     0.921652     0.498731  Biso 1.000000     C
    C   1.0     0.086996     0.826439     0.705953  Biso 1.000000     C
    C   1.0     0.586429     0.826043     0.705638  Biso 1.000000     C
    C   1.0     0.127658     0.747307     0.750553  Biso 1.000000     C
    C   1.0     0.627085     0.746958     0.750384  Biso 1.000000     C
    C   1.0     0.372960     0.253045     0.249585  Biso 1.000000     C
    C   1.0     0.872369     0.252717     0.249417  Biso 1.000000     C
    N   1.0     0.207895     0.290123     0.865597  Biso 1.000000     N
    N   1.0     0.708489     0.290756     0.865552  Biso 1.000000     N
    N   1.0     0.324848     0.456301     0.661370  Biso 1.000000     N
    N   1.0     0.824800     0.456265     0.661088  Biso 1.000000     N
    N   1.0     0.207976     0.208875     0.632571  Biso 1.000000     N
    N   1.0     0.708629     0.209666     0.632030  Biso 1.000000     N
    N   1.0     0.324674     0.042247     0.839283  Biso 1.000000     N
    N   1.0     0.823767     0.042384     0.839340  Biso 1.000000     N
    N   1.0     0.458294     0.135733     0.789831  Biso 1.000000     N
    N   1.0     0.957595     0.135228     0.790199  Biso 1.000000     N
    N   1.0     0.073095     0.337329     0.958887  Biso 1.000000     N
    N   1.0     0.573704     0.337457     0.958846  Biso 1.000000     N
    N   1.0     0.458554     0.364150     0.709450  Biso 1.000000     N
    N   1.0     0.958883     0.364714     0.709298  Biso 1.000000     N
    N   1.0     0.072632     0.163279     0.538077  Biso 1.000000     N
    N   1.0     0.573311     0.163213     0.538148  Biso 1.000000     N
    N   1.0     0.291548     0.709282     0.134396  Biso 1.000000     N
    N   1.0     0.792136     0.709882     0.134389  Biso 1.000000     N
    N   1.0     0.175278     0.543774     0.338888  Biso 1.000000     N
    N   1.0     0.675183     0.543732     0.338605  Biso 1.000000     N
    N   1.0     0.291407     0.790387     0.367944  Biso 1.000000     N
    N   1.0     0.792054     0.791118     0.367398  Biso 1.000000     N
    N   1.0     0.176261     0.957647     0.160626  Biso 1.000000     N
    N   1.0     0.675352     0.957778     0.160683  Biso 1.000000     N
    N   1.0     0.042433     0.864789     0.209770  Biso 1.000000     N
    N   1.0     0.541736     0.864291     0.210134  Biso 1.000000     N
    N   1.0     0.426338     0.662556     0.041126  Biso 1.000000     N
    N   1.0     0.926932     0.662695     0.041081  Biso 1.000000     N
    N   1.0     0.041188     0.635315     0.290672  Biso 1.000000     N
    N   1.0     0.541471     0.635868     0.290514  Biso 1.000000     N
    N   1.0     0.426727     0.836802     0.461826  Biso 1.000000     N
    N   1.0     0.927393     0.836746     0.461895  Biso 1.000000     N
    O   1.0     0.200332     0.621135     0.712156  Biso 1.000000     O
    O   1.0     0.700578     0.621531     0.712486  Biso 1.000000     O
    O   1.0     0.202629     0.871592     0.787116  Biso 1.000000     O
    O   1.0     0.701606     0.871852     0.787244  Biso 1.000000     O
    O   1.0     0.448235     0.287794     0.124615  Biso 1.000000     O
    O   1.0     0.947400     0.287731     0.124172  Biso 1.000000     O
    O   1.0     0.448081     0.216383     0.374092  Biso 1.000000     O
    O   1.0     0.947317     0.215961     0.374002  Biso 1.000000     O
    O   1.0     0.299486     0.378486     0.287492  Biso 1.000000     O
    O   1.0     0.799691     0.378887     0.287808  Biso 1.000000     O
    O   1.0     0.298424     0.128173     0.212729  Biso 1.000000     O
    O   1.0     0.797394     0.128438     0.212854  Biso 1.000000     O
    O   1.0     0.052627     0.712292     0.875796  Biso 1.000000     O
    O   1.0     0.551797     0.712224     0.875339  Biso 1.000000     O
    O   1.0     0.052699     0.784058     0.625983  Biso 1.000000     O
    O   1.0     0.551952     0.783617     0.625885  Biso 1.000000     O
    S   1.0     0.338831     0.296125     0.877801  Biso 1.000000     S
    S   1.0     0.839407     0.296465     0.877729  Biso 1.000000     S
    S   1.0     0.338930     0.202372     0.622015  Biso 1.000000     S
    S   1.0     0.839553     0.202586     0.621748  Biso 1.000000     S
    S   1.0     0.088499     0.123323     0.793130  Biso 1.000000     S
    S   1.0     0.589192     0.123374     0.792972  Biso 1.000000     S
    S   1.0     0.089809     0.376639     0.704240  Biso 1.000000     S
    S   1.0     0.589509     0.376376     0.704182  Biso 1.000000     S
    S   1.0     0.160630     0.703568     0.122229  Biso 1.000000     S
    S   1.0     0.661200     0.703896     0.122168  Biso 1.000000     S
    S   1.0     0.160483     0.797458     0.378218  Biso 1.000000     S
    S   1.0     0.661100     0.797650     0.377950  Biso 1.000000     S
    S   1.0     0.410838     0.876649     0.206996  Biso 1.000000     S
    S   1.0     0.911530     0.876703     0.206838  Biso 1.000000     S
    S   1.0     0.410516     0.623647     0.295787  Biso 1.000000     S
    S   1.0     0.910262     0.623397     0.295730  Biso 1.000000     S
   Cu   1.0     0.370807     0.341407     0.720427  Biso 1.000000    Cu
   Cu   1.0     0.871363     0.341641     0.720279  Biso 1.000000    Cu
   Cu   1.0     0.370620     0.158029     0.779532  Biso 1.000000    Cu
   Cu   1.0     0.869860     0.157965     0.779627  Biso 1.000000    Cu
   Cu   1.0     0.120223     0.279165     0.842132  Biso 1.000000    Cu
   Cu   1.0     0.621004     0.279229     0.842039  Biso 1.000000    Cu
   Cu   1.0     0.120271     0.220660     0.654494  Biso 1.000000    Cu
   Cu   1.0     0.621105     0.220784     0.654464  Biso 1.000000    Cu
   Cu   1.0     0.128712     0.658384     0.279690  Biso 1.000000    Cu
   Cu   1.0     0.629216     0.658614     0.279539  Biso 1.000000    Cu
   Cu   1.0     0.130168     0.842060     0.220337  Biso 1.000000    Cu
   Cu   1.0     0.629407     0.841992     0.220434  Biso 1.000000    Cu
   Cu   1.0     0.379029     0.720792     0.157925  Biso 1.000000    Cu
   Cu   1.0     0.879806     0.720854     0.157841  Biso 1.000000    Cu
   Cu   1.0     0.378926     0.779239     0.345506  Biso 1.000000    Cu
   Cu   1.0     0.879759     0.779358     0.345474  Biso 1.000000    Cu
