#======================================================================

# CRYSTAL DATA

#----------------------------------------------------------------------

data_VESTA_phase_1


_pd_phase_name                         MOF
_cell_length_a                         10.24600
_cell_length_b                         21.66700
_cell_length_c                         12.26900
_cell_angle_alpha                      90.12600
_cell_angle_beta                       90.07700
_cell_angle_gamma                      93.86300
_symmetry_space_group_name_H-M         "P 1"
_symmetry_Int_Tables_number            1

loop_
_symmetry_equiv_pos_as_xyz
   "x, y, z"

loop_
   _atom_site_label
   _atom_site_occupancy
   _atom_site_fract_x
   _atom_site_fract_y
   _atom_site_fract_z
   _atom_site_adp_type
   _atom_site_B_iso_or_equiv
   _atom_site_type_symbol
    C   1.0     0.245898     0.280480     0.498050  Biso 1.000000     C
    C   1.0     0.243310     0.780740     0.497026  Biso 1.000000     C
    C   1.0     0.744780     0.280433     0.498037  Biso 1.000000     C
    C   1.0     0.745424     0.780786     0.496416  Biso 1.000000     C
    C   1.0     0.235614     0.336468     0.494260  Biso 1.000000     C
    C   1.0     0.233515     0.836753     0.493552  Biso 1.000000     C
    C   1.0     0.735091     0.336464     0.494277  Biso 1.000000     C
    C   1.0     0.736057     0.836820     0.492831  Biso 1.000000     C
    C   1.0     0.255532     0.219442     0.997518  Biso 1.000000     C
    C   1.0     0.254746     0.718813     0.996884  Biso 1.000000     C
    C   1.0     0.755540     0.219468     0.998209  Biso 1.000000     C
    C   1.0     0.754708     0.718812     0.996760  Biso 1.000000     C
    C   1.0     0.264977     0.163390    -0.006955  Biso 1.000000     C
    C   1.0     0.264230     0.662754    -0.007112  Biso 1.000000     C
    C   1.0     0.764973     0.163415    -0.006099  Biso 1.000000     C
    C   1.0     0.764210     0.662753    -0.007169  Biso 1.000000     C
    C   1.0     0.256476     0.218762     0.502316  Biso 1.000000     C
    C   1.0     0.254110     0.719075     0.501420  Biso 1.000000     C
    C   1.0     0.754829     0.218681     0.502321  Biso 1.000000     C
    C   1.0     0.755558     0.719087     0.500991  Biso 1.000000     C
    C   1.0     0.265987     0.162709     0.505702  Biso 1.000000     C
    C   1.0     0.264535     0.663117     0.505357  Biso 1.000000     C
    C   1.0     0.763928     0.162602     0.505768  Biso 1.000000     C
    C   1.0     0.765156     0.663082     0.505162  Biso 1.000000     C
    C   1.0     0.245363     0.281190     0.002715  Biso 1.000000     C
    C   1.0     0.244654     0.780569     0.001859  Biso 1.000000     C
    C   1.0     0.745375     0.281217     0.003166  Biso 1.000000     C
    C   1.0     0.744606     0.780567     0.001676  Biso 1.000000     C
    C   1.0     0.235807     0.337240     0.000000  Biso 1.000000     C
    C   1.0     0.235281     0.836627     0.000000  Biso 1.000000     C
    C   1.0     0.735814     0.337270     0.000000  Biso 1.000000     C
    C   1.0     0.735232     0.836626     0.000000  Biso 1.000000     C
    O   1.0     0.101138     0.433677     0.533397  Biso 1.000000     O
    O   1.0     0.102261     0.934671     0.534558  Biso 1.000000     O
    O   1.0     0.601125     0.433795     0.533427  Biso 1.000000     O
    O   1.0     0.602183     0.933689     0.533809  Biso 1.000000     O
    O   1.0     0.218041     0.423947     0.351395  Biso 1.000000     O
    O   1.0     0.221463     0.925601     0.352434  Biso 1.000000     O
    O   1.0     0.717991     0.423962     0.351418  Biso 1.000000     O
    O   1.0     0.722219     0.925785     0.352179  Biso 1.000000     O
    O   1.0     0.349951     0.447716     0.523166  Biso 1.000000     O
    O   1.0     0.350836     0.946762     0.526426  Biso 1.000000     O
    O   1.0     0.849958     0.447633     0.523187  Biso 1.000000     O
    O   1.0     0.850953     0.947333     0.526683  Biso 1.000000     O
    O   1.0     0.398136     0.066046     0.033155  Biso 1.000000     O
    O   1.0     0.398079     0.565760     0.033982  Biso 1.000000     O
    O   1.0     0.898183     0.066009     0.033371  Biso 1.000000     O
    O   1.0     0.898074     0.565765     0.033962  Biso 1.000000     O
    O   1.0     0.279202     0.074562     0.851117  Biso 1.000000     O
    O   1.0     0.277889     0.573233     0.852189  Biso 1.000000     O
    O   1.0     0.778962     0.074805     0.851585  Biso 1.000000     O
    O   1.0     0.777882     0.573226     0.852165  Biso 1.000000     O
    O   1.0     0.149171     0.052781     0.023840  Biso 1.000000     O
    O   1.0     0.149316     0.552172     0.026267  Biso 1.000000     O
    O   1.0     0.649164     0.052750     0.024237  Biso 1.000000     O
    O   1.0     0.649308     0.552172     0.026248  Biso 1.000000     O
    O   1.0     0.396301     0.064296     0.464640  Biso 1.000000     O
    O   1.0     0.398833     0.565898     0.466620  Biso 1.000000     O
    O   1.0     0.895758     0.064814     0.464843  Biso 1.000000     O
    O   1.0     0.898861     0.565769     0.466586  Biso 1.000000     O
    O   1.0     0.279286     0.074154     0.647226  Biso 1.000000     O
    O   1.0     0.281929     0.575922     0.648605  Biso 1.000000     O
    O   1.0     0.778208     0.074358     0.647666  Biso 1.000000     O
    O   1.0     0.781968     0.575915     0.648569  Biso 1.000000     O
    O   1.0     0.147641     0.052745     0.474206  Biso 1.000000     O
    O   1.0     0.149978     0.552011     0.476886  Biso 1.000000     O
    O   1.0     0.647368     0.052000     0.474869  Biso 1.000000     O
    O   1.0     0.649973     0.552063     0.476866  Biso 1.000000     O
    O   1.0     0.101933     0.434249     0.966019  Biso 1.000000     O
    O   1.0     0.102149     0.934051     0.966575  Biso 1.000000     O
    O   1.0     0.601931     0.434252     0.966038  Biso 1.000000     O
    O   1.0     0.602132     0.934087     0.966494  Biso 1.000000     O
    O   1.0     0.222106     0.426743     0.147800  Biso 1.000000     O
    O   1.0     0.221107     0.925243     0.148469  Biso 1.000000     O
    O   1.0     0.722116     0.426784     0.147831  Biso 1.000000     O
    O   1.0     0.721113     0.925193     0.148330  Biso 1.000000     O
    O   1.0     0.350698     0.447839     0.973756  Biso 1.000000     O
    O   1.0     0.351130     0.947291     0.975900  Biso 1.000000     O
    O   1.0     0.850695     0.447848     0.973757  Biso 1.000000     O
    O   1.0     0.851131     0.947293     0.975817  Biso 1.000000     O
    F   1.0     0.494394     0.021344     0.652492  Biso 1.000000     F
    F   1.0     0.493941     0.520118     0.652870  Biso 1.000000     F
    F   1.0     0.994825     0.023728     0.652210  Biso 1.000000     F
    F   1.0     0.993950     0.520103     0.652865  Biso 1.000000     F
    F   1.0     0.005079     0.477450     0.152318  Biso 1.000000     F
    F   1.0     0.006052     0.978709     0.152705  Biso 1.000000     F
    F   1.0     0.505065     0.477451     0.152319  Biso 1.000000     F
    F   1.0     0.506068     0.978704     0.152716  Biso 1.000000     F
    F   1.0     0.006079     0.479840     0.347118  Biso 1.000000     F
    F   1.0     0.005016     0.976293     0.347753  Biso 1.000000     F
    F   1.0     0.506049     0.479857     0.347127  Biso 1.000000     F
    F   1.0     0.505095     0.976175     0.347644  Biso 1.000000     F
    F   1.0     0.494176     0.021299     0.847311  Biso 1.000000     F
    F   1.0     0.494928     0.522556     0.847698  Biso 1.000000     F
    F   1.0     0.993966     0.021305     0.847224  Biso 1.000000     F
    F   1.0     0.994927     0.522557     0.847697  Biso 1.000000     F
   Al   1.0    -0.000577    -0.000081     0.499995  Biso 1.000000    Al
   Al   1.0     0.000048     0.499788     0.500054  Biso 1.000000    Al
   Al   1.0     0.499335    -0.000904     0.500012  Biso 1.000000    Al
   Al   1.0     0.500007     0.499878     0.500040  Biso 1.000000    Al
   Al   1.0     0.000160     0.000028    -0.000070  Biso 1.000000    Al
   Al   1.0     0.000019     0.500004     0.000020  Biso 1.000000    Al
   Al   1.0     0.500148     0.000040     0.000033  Biso 1.000000    Al
   Al   1.0     0.500002     0.500003     0.000019  Biso 1.000000    Al
   Al   1.0     0.382343     0.046905     0.749544  Biso 1.000000    Al
   Al   1.0     0.382766     0.547011     0.750217  Biso 1.000000    Al
   Al   1.0     0.882117     0.047552     0.749857  Biso 1.000000    Al
   Al   1.0     0.882772     0.547004     0.750204  Biso 1.000000    Al
   Al   1.0     0.117239     0.452935     0.249797  Biso 1.000000    Al
   Al   1.0     0.117754     0.952435     0.250134  Biso 1.000000    Al
   Al   1.0     0.617220     0.452959     0.249815  Biso 1.000000    Al
   Al   1.0     0.617983     0.952437     0.250069  Biso 1.000000    Al
    P   1.0     0.225504     0.415688     0.477243  Biso 1.000000     P
    P   1.0     0.226115     0.916178     0.478146  Biso 1.000000     P
    P   1.0     0.725402     0.415706     0.477269  Biso 1.000000     P
    P   1.0     0.727029     0.916172     0.477842  Biso 1.000000     P
    P   1.0     0.273674     0.083962     0.976879  Biso 1.000000     P
    P   1.0     0.273195     0.583273     0.977795  Biso 1.000000     P
    P   1.0     0.773623     0.084020     0.977402  Biso 1.000000     P
    P   1.0     0.773187     0.583271     0.977771  Biso 1.000000     P
    P   1.0     0.273100     0.083227     0.521477  Biso 1.000000     P
    P   1.0     0.274527     0.583971     0.522711  Biso 1.000000     P
    P   1.0     0.772184     0.083204     0.521863  Biso 1.000000     P
    P   1.0     0.774629     0.583935     0.522664  Biso 1.000000     P
    P   1.0     0.226816     0.416716     0.022188  Biso 1.000000     P
    P   1.0     0.226623     0.916026     0.022663  Biso 1.000000     P
    P   1.0     0.726817     0.416746     0.022225  Biso 1.000000     P
    P   1.0     0.726606     0.916022     0.022519  Biso 1.000000     P
