#======================================================================

# CRYSTAL DATA

#----------------------------------------------------------------------

data_VESTA_phase_1


_pd_phase_name                         MOF
_cell_length_a                         22.41000
_cell_length_b                         16.72600
_cell_length_c                         17.15200
_cell_angle_alpha                      64.59200
_cell_angle_beta                       80.09500
_cell_angle_gamma                      85.22500
_symmetry_space_group_name_H-M         "P 1"
_symmetry_Int_Tables_number            1

loop_
_symmetry_equiv_pos_as_xyz
   "x, y, z"

loop_
   _atom_site_label
   _atom_site_occupancy
   _atom_site_fract_x
   _atom_site_fract_y
   _atom_site_fract_z
   _atom_site_adp_type
   _atom_site_B_iso_or_equiv
   _atom_site_type_symbol
    H   1.0     0.215771     0.759996     0.872534  Biso 1.000000     H
    H   1.0     0.728144     0.759995     0.872534  Biso 1.000000     H
    H   1.0     0.211425     0.703931     0.805597  Biso 1.000000     H
    H   1.0     0.723798     0.703930     0.805597  Biso 1.000000     H
    H   1.0     0.151071     0.694354     0.892017  Biso 1.000000     H
    H   1.0     0.663443     0.694352     0.892017  Biso 1.000000     H
    H   1.0     0.247877     0.649126     0.016206  Biso 1.000000     H
    H   1.0     0.760249     0.649125     0.016206  Biso 1.000000     H
    H   1.0     0.182783     0.583998     0.036890  Biso 1.000000     H
    H   1.0     0.695156     0.583996     0.036890  Biso 1.000000     H
    H   1.0     0.165066     0.532040     0.945388  Biso 1.000000     H
    H   1.0     0.677439     0.532038     0.945388  Biso 1.000000     H
    H   1.0     0.227726     0.545981     0.861385  Biso 1.000000     H
    H   1.0     0.740099     0.545980     0.861385  Biso 1.000000     H
    H   1.0     0.033060     0.749802     0.900663  Biso 1.000000     H
    H   1.0     0.545428     0.749800     0.900664  Biso 1.000000     H
    H   1.0     0.480653     0.756948     0.973813  Biso 1.000000     H
    H   1.0     0.993015     0.756948     0.973815  Biso 1.000000     H
    H   1.0     0.047851     0.669919     0.010400  Biso 1.000000     H
    H   1.0     0.560219     0.669921     0.010401  Biso 1.000000     H
    H   1.0     0.054222     0.612145     0.882908  Biso 1.000000     H
    H   1.0     0.566590     0.612143     0.882912  Biso 1.000000     H
    H   1.0     0.062489     0.563534     0.995876  Biso 1.000000     H
    H   1.0     0.574857     0.563531     0.995877  Biso 1.000000     H
    H   1.0     0.500773     0.544885     0.097866  Biso 1.000000     H
    H   1.0     0.000000     0.544888     0.097861  Biso 1.000000     H
    H   1.0     0.434220     0.599497     0.059395  Biso 1.000000     H
    H   1.0     0.946587     0.599493     0.059403  Biso 1.000000     H
    H   1.0     0.351413     0.921631     0.600699  Biso 1.000000     H
    H   1.0     0.863783     0.921629     0.600699  Biso 1.000000     H
    H   1.0     0.349219     0.000000     0.497247  Biso 1.000000     H
    H   1.0     0.861589     0.000000     0.497247  Biso 1.000000     H
    H   1.0     0.372923     0.907890     0.501518  Biso 1.000000     H
    H   1.0     0.885293     0.907888     0.501517  Biso 1.000000     H
    H   1.0     0.431848     0.069021     0.540341  Biso 1.000000     H
    H   1.0     0.944213     0.069019     0.540342  Biso 1.000000     H
    H   1.0     0.419376     0.000000     0.641552  Biso 1.000000     H
    H   1.0     0.931742     0.000000     0.641553  Biso 1.000000     H
    H   1.0     0.467670     0.969242     0.408284  Biso 1.000000     H
    H   1.0     0.980038     0.969240     0.408284  Biso 1.000000     H
    H   1.0     0.460251     0.050601     0.403419  Biso 1.000000     H
    H   1.0     0.972617     0.050599     0.403419  Biso 1.000000     H
    H   1.0     0.113779     0.547632     0.573397  Biso 1.000000     H
    H   1.0     0.626148     0.547631     0.573397  Biso 1.000000     H
    H   1.0     0.125430     0.543146     0.469091  Biso 1.000000     H
    H   1.0     0.637800     0.543146     0.469091  Biso 1.000000     H
    H   1.0     0.108452     0.646569     0.476187  Biso 1.000000     H
    H   1.0     0.620821     0.646568     0.476188  Biso 1.000000     H
    H   1.0     0.020771     0.671480     0.402098  Biso 1.000000     H
    H   1.0     0.533138     0.671479     0.402099  Biso 1.000000     H
    H   1.0     0.039104     0.570669     0.390900  Biso 1.000000     H
    H   1.0     0.551470     0.570668     0.390900  Biso 1.000000     H
    H   1.0     0.047038     0.432743     0.523020  Biso 1.000000     H
    H   1.0     0.559404     0.432742     0.523020  Biso 1.000000     H
    H   1.0     0.035437     0.437002     0.626785  Biso 1.000000     H
    H   1.0     0.547802     0.437001     0.626785  Biso 1.000000     H
    H   1.0     0.365110     0.722727     0.982101  Biso 1.000000     H
    H   1.0     0.877482     0.722726     0.982101  Biso 1.000000     H
    H   1.0     0.359251     0.857435     0.987141  Biso 1.000000     H
    H   1.0     0.871623     0.857435     0.987141  Biso 1.000000     H
    H   1.0     0.331494     0.000000     0.917606  Biso 1.000000     H
    H   1.0     0.843867     0.000000     0.917605  Biso 1.000000     H
    H   1.0     0.316197     0.057322     0.771251  Biso 1.000000     H
    H   1.0     0.828570     0.057322     0.771250  Biso 1.000000     H
    H   1.0     0.290674     0.982337     0.697066  Biso 1.000000     H
    H   1.0     0.803046     0.982337     0.697065  Biso 1.000000     H
    H   1.0     0.317739     0.824062     0.766585  Biso 1.000000     H
    H   1.0     0.830111     0.824061     0.766586  Biso 1.000000     H
    H   1.0     0.413860     0.544981     0.857083  Biso 1.000000     H
    H   1.0     0.926233     0.544980     0.857082  Biso 1.000000     H
    H   1.0     0.335448     0.736030     0.711122  Biso 1.000000     H
    H   1.0     0.847820     0.736029     0.711122  Biso 1.000000     H
    H   1.0     0.263154     0.721492     0.624411  Biso 1.000000     H
    H   1.0     0.775527     0.721490     0.624411  Biso 1.000000     H
    H   1.0     0.243025     0.573249     0.631656  Biso 1.000000     H
    H   1.0     0.755398     0.573246     0.631658  Biso 1.000000     H
    H   1.0     0.297609     0.440396     0.727626  Biso 1.000000     H
    H   1.0     0.809983     0.440394     0.727627  Biso 1.000000     H
    H   1.0     0.368761     0.454157     0.815997  Biso 1.000000     H
    H   1.0     0.881135     0.454156     0.815998  Biso 1.000000     H
    H   1.0     0.425520     0.822629     0.754577  Biso 1.000000     H
    H   1.0     0.937881     0.822626     0.754578  Biso 1.000000     H
    H   1.0     0.455998     0.920730     0.799777  Biso 1.000000     H
    H   1.0     0.968357     0.920729     0.799779  Biso 1.000000     H
    H   1.0     0.028339     0.000000     0.808437  Biso 1.000000     H
    H   1.0     0.540712     0.000000     0.808437  Biso 1.000000     H
    H   1.0     0.135636     0.966892     0.759562  Biso 1.000000     H
    H   1.0     0.648009     0.966888     0.759560  Biso 1.000000     H
    H   1.0     0.155398     0.853490     0.699442  Biso 1.000000     H
    H   1.0     0.667768     0.853487     0.699439  Biso 1.000000     H
    H   1.0     0.070459     0.774016     0.690108  Biso 1.000000     H
    H   1.0     0.582828     0.774015     0.690105  Biso 1.000000     H
    H   1.0     0.408505     0.722166     0.583518  Biso 1.000000     H
    H   1.0     0.920872     0.722167     0.583519  Biso 1.000000     H
    H   1.0     0.398993     0.783812     0.435566  Biso 1.000000     H
    H   1.0     0.911360     0.783810     0.435567  Biso 1.000000     H
    H   1.0     0.447990     0.863533     0.283096  Biso 1.000000     H
    H   1.0     0.960356     0.863531     0.283096  Biso 1.000000     H
    H   1.0     0.044381     0.907971     0.249421  Biso 1.000000     H
    H   1.0     0.556747     0.907970     0.249422  Biso 1.000000     H
    H   1.0     0.103127     0.867869     0.372109  Biso 1.000000     H
    H   1.0     0.615492     0.867866     0.372111  Biso 1.000000     H
    H   1.0     0.054763     0.787007     0.525356  Biso 1.000000     H
    H   1.0     0.567128     0.787006     0.525356  Biso 1.000000     H
    H   1.0     0.068280     0.649021     0.692370  Biso 1.000000     H
    H   1.0     0.580650     0.649021     0.692371  Biso 1.000000     H
    H   1.0     0.142639     0.550941     0.755550  Biso 1.000000     H
    H   1.0     0.655010     0.550939     0.755550  Biso 1.000000     H
    H   1.0     0.172452     0.395476     0.836402  Biso 1.000000     H
    H   1.0     0.684823     0.395475     0.836402  Biso 1.000000     H
    H   1.0     0.099506     0.272995     0.878652  Biso 1.000000     H
    H   1.0     0.611878     0.272994     0.878651  Biso 1.000000     H
    H   1.0    -0.004727     0.311190     0.838641  Biso 1.000000     H
    H   1.0     0.507644     0.311190     0.838640  Biso 1.000000     H
    H   1.0    -0.035142     0.467087     0.758527  Biso 1.000000     H
    H   1.0     0.477229     0.467087     0.758528  Biso 1.000000     H
    H   1.0     0.262951     0.288840     0.133393  Biso 1.000000     H
    H   1.0     0.775324     0.288839     0.133393  Biso 1.000000     H
    H   1.0     0.267298     0.344905     0.200329  Biso 1.000000     H
    H   1.0     0.779671     0.344904     0.200330  Biso 1.000000     H
    H   1.0     0.327652     0.354481     0.113910  Biso 1.000000     H
    H   1.0     0.840025     0.354479     0.113911  Biso 1.000000     H
    H   1.0     0.230847     0.399710     0.989720  Biso 1.000000     H
    H   1.0     0.743220     0.399709     0.989720  Biso 1.000000     H
    H   1.0     0.295941     0.464838     0.969037  Biso 1.000000     H
    H   1.0     0.808314     0.464836     0.969037  Biso 1.000000     H
    H   1.0     0.313658     0.516796     0.060537  Biso 1.000000     H
    H   1.0     0.826031     0.516795     0.060537  Biso 1.000000     H
    H   1.0     0.250999     0.502855     0.144541  Biso 1.000000     H
    H   1.0     0.763372     0.502854     0.144541  Biso 1.000000     H
    H   1.0     0.445670     0.299042     0.105255  Biso 1.000000     H
    H   1.0     0.958038     0.299041     0.105257  Biso 1.000000     H
    H   1.0    -0.001917     0.291893     0.032104  Biso 1.000000     H
    H   1.0     0.510445     0.291893     0.032105  Biso 1.000000     H
    H   1.0     0.430879     0.378920     0.995518  Biso 1.000000     H
    H   1.0     0.943247     0.378921     0.995519  Biso 1.000000     H
    H   1.0     0.424508     0.436698     0.123009  Biso 1.000000     H
    H   1.0     0.936877     0.436696     0.123013  Biso 1.000000     H
    H   1.0     0.416241     0.485312     0.010043  Biso 1.000000     H
    H   1.0     0.928609     0.485310     0.010045  Biso 1.000000     H
    H   1.0    -0.022044     0.503956     0.908056  Biso 1.000000     H
    H   1.0     0.490327     0.503957     0.908052  Biso 1.000000     H
    H   1.0     0.044512     0.449348     0.946518  Biso 1.000000     H
    H   1.0     0.556879     0.449344     0.946525  Biso 1.000000     H
    H   1.0     0.127301     0.127201     0.405227  Biso 1.000000     H
    H   1.0     0.639670     0.127199     0.405228  Biso 1.000000     H
    H   1.0     0.129492     0.034663     0.508679  Biso 1.000000     H
    H   1.0     0.641862     0.034661     0.508679  Biso 1.000000     H
    H   1.0     0.105790     0.140942     0.504409  Biso 1.000000     H
    H   1.0     0.618160     0.140940     0.504409  Biso 1.000000     H
    H   1.0     0.046868     0.979817     0.465582  Biso 1.000000     H
    H   1.0     0.559233     0.979814     0.465582  Biso 1.000000     H
    H   1.0     0.059339     0.048544     0.364370  Biso 1.000000     H
    H   1.0     0.571705     0.048542     0.364371  Biso 1.000000     H
    H   1.0     0.011043     0.079596     0.597639  Biso 1.000000     H
    H   1.0     0.523411     0.079595     0.597639  Biso 1.000000     H
    H   1.0     0.018465     0.998238     0.602504  Biso 1.000000     H
    H   1.0     0.530830     0.998236     0.602505  Biso 1.000000     H
    H   1.0     0.364948     0.501210     0.432520  Biso 1.000000     H
    H   1.0     0.877317     0.501209     0.432520  Biso 1.000000     H
    H   1.0     0.353296     0.505696     0.536825  Biso 1.000000     H
    H   1.0     0.865665     0.505695     0.536826  Biso 1.000000     H
    H   1.0     0.370275     0.402273     0.529730  Biso 1.000000     H
    H   1.0     0.882644     0.402272     0.529731  Biso 1.000000     H
    H   1.0     0.457957     0.377363     0.603821  Biso 1.000000     H
    H   1.0     0.970324     0.377363     0.603822  Biso 1.000000     H
    H   1.0     0.439625     0.478175     0.615018  Biso 1.000000     H
    H   1.0     0.951991     0.478174     0.615019  Biso 1.000000     H
    H   1.0     0.431691     0.616100     0.482899  Biso 1.000000     H
    H   1.0     0.944057     0.616099     0.482899  Biso 1.000000     H
    H   1.0     0.443294     0.611841     0.379133  Biso 1.000000     H
    H   1.0     0.955659     0.611840     0.379133  Biso 1.000000     H
    H   1.0     0.113617     0.326116     0.023822  Biso 1.000000     H
    H   1.0     0.625989     0.326116     0.023822  Biso 1.000000     H
    H   1.0     0.119477     0.191410     0.018778  Biso 1.000000     H
    H   1.0     0.631849     0.191410     0.018777  Biso 1.000000     H
    H   1.0     0.147228     0.033206     0.088314  Biso 1.000000     H
    H   1.0     0.659601     0.033206     0.088313  Biso 1.000000     H
    H   1.0     0.162516     0.991515     0.234674  Biso 1.000000     H
    H   1.0     0.674889     0.991515     0.234673  Biso 1.000000     H
    H   1.0     0.188036     0.066496     0.308865  Biso 1.000000     H
    H   1.0     0.700409     0.066495     0.308864  Biso 1.000000     H
    H   1.0     0.160977     0.224774     0.239344  Biso 1.000000     H
    H   1.0     0.673349     0.224772     0.239344  Biso 1.000000     H
    H   1.0     0.064863     0.503858     0.148842  Biso 1.000000     H
    H   1.0     0.577236     0.503858     0.148842  Biso 1.000000     H
    H   1.0     0.143277     0.312814     0.294807  Biso 1.000000     H
    H   1.0     0.655650     0.312813     0.294807  Biso 1.000000     H
    H   1.0     0.215574     0.327362     0.381509  Biso 1.000000     H
    H   1.0     0.727946     0.327360     0.381510  Biso 1.000000     H
    H   1.0     0.235705     0.475611     0.374251  Biso 1.000000     H
    H   1.0     0.748078     0.475608     0.374251  Biso 1.000000     H
    H   1.0     0.181118     0.608459     0.278278  Biso 1.000000     H
    H   1.0     0.693491     0.608457     0.278279  Biso 1.000000     H
    H   1.0     0.109963     0.594688     0.189917  Biso 1.000000     H
    H   1.0     0.622336     0.594687     0.189917  Biso 1.000000     H
    H   1.0     0.053212     0.226211     0.251342  Biso 1.000000     H
    H   1.0     0.565573     0.226208     0.251343  Biso 1.000000     H
    H   1.0     0.022734     0.128108     0.206143  Biso 1.000000     H
    H   1.0     0.535093     0.128108     0.206144  Biso 1.000000     H
    H   1.0     0.450376     0.048725     0.197485  Biso 1.000000     H
    H   1.0     0.962749     0.048723     0.197484  Biso 1.000000     H
    H   1.0     0.343081     0.081954     0.246365  Biso 1.000000     H
    H   1.0     0.855453     0.081950     0.246364  Biso 1.000000     H
    H   1.0     0.323324     0.195357     0.306484  Biso 1.000000     H
    H   1.0     0.835694     0.195354     0.306482  Biso 1.000000     H
    H   1.0     0.408266     0.274827     0.315816  Biso 1.000000     H
    H   1.0     0.920636     0.274825     0.315815  Biso 1.000000     H
    H   1.0     0.070220     0.326664     0.422407  Biso 1.000000     H
    H   1.0     0.582587     0.326664     0.422408  Biso 1.000000     H
    H   1.0     0.079723     0.265022     0.570362  Biso 1.000000     H
    H   1.0     0.592089     0.265019     0.570363  Biso 1.000000     H
    H   1.0     0.030718     0.185306     0.722829  Biso 1.000000     H
    H   1.0     0.543084     0.185304     0.722829  Biso 1.000000     H
    H   1.0     0.434325     0.140877     0.756490  Biso 1.000000     H
    H   1.0     0.946691     0.140874     0.756491  Biso 1.000000     H
    H   1.0     0.375588     0.180986     0.633793  Biso 1.000000     H
    H   1.0     0.887953     0.180983     0.633794  Biso 1.000000     H
    H   1.0     0.423961     0.261841     0.480551  Biso 1.000000     H
    H   1.0     0.936326     0.261838     0.480552  Biso 1.000000     H
    H   1.0     0.410447     0.399823     0.313550  Biso 1.000000     H
    H   1.0     0.922817     0.399823     0.313552  Biso 1.000000     H
    H   1.0     0.336089     0.497907     0.250366  Biso 1.000000     H
    H   1.0     0.848461     0.497906     0.250365  Biso 1.000000     H
    H   1.0     0.306280     0.653373     0.169509  Biso 1.000000     H
    H   1.0     0.818651     0.653372     0.169508  Biso 1.000000     H
    H   1.0     0.379227     0.775851     0.127261  Biso 1.000000     H
    H   1.0     0.891599     0.775851     0.127260  Biso 1.000000     H
    H   1.0     0.483459     0.737652     0.167277  Biso 1.000000     H
    H   1.0     0.995830     0.737652     0.167277  Biso 1.000000     H
    H   1.0     0.513871     0.581754     0.247394  Biso 1.000000     H
    H   1.0     0.000000     0.581753     0.247395  Biso 1.000000     H
   Li   1.0     0.324927     0.650189     0.891477  Biso 1.000000    Li
   Li   1.0     0.837299     0.650188     0.891478  Biso 1.000000    Li
   Li   1.0     0.434289     0.693451     0.864040  Biso 1.000000    Li
   Li   1.0     0.946657     0.693450     0.864040  Biso 1.000000    Li
   Li   1.0     0.467912     0.678297     0.719253  Biso 1.000000    Li
   Li   1.0     0.980278     0.678298     0.719253  Biso 1.000000    Li
   Li   1.0     0.464331     0.841085     0.607241  Biso 1.000000    Li
   Li   1.0     0.976702     0.841085     0.607241  Biso 1.000000    Li
   Li   1.0    -0.001676     0.628253     0.597859  Biso 1.000000    Li
   Li   1.0     0.510695     0.628255     0.597858  Biso 1.000000    Li
   Li   1.0     0.153797     0.398650     0.114450  Biso 1.000000    Li
   Li   1.0     0.666169     0.398649     0.114450  Biso 1.000000    Li
   Li   1.0     0.044438     0.355390     0.141882  Biso 1.000000    Li
   Li   1.0     0.556807     0.355390     0.141881  Biso 1.000000    Li
   Li   1.0     0.010818     0.370541     0.286670  Biso 1.000000    Li
   Li   1.0     0.523184     0.370541     0.286670  Biso 1.000000    Li
   Li   1.0     0.014387     0.207752     0.398680  Biso 1.000000    Li
   Li   1.0     0.526757     0.207752     0.398680  Biso 1.000000    Li
   Li   1.0     0.480402     0.420587     0.408063  Biso 1.000000    Li
   Li   1.0     0.992773     0.420589     0.408062  Biso 1.000000    Li
    C   1.0     0.200719     0.699317     0.872266  Biso 1.000000     C
    C   1.0     0.713092     0.699316     0.872266  Biso 1.000000     C
    C   1.0     0.232518     0.588825     0.015338  Biso 1.000000     C
    C   1.0     0.744890     0.588824     0.015338  Biso 1.000000     C
    C   1.0     0.214928     0.540324     0.928330  Biso 1.000000     C
    C   1.0     0.727300     0.540323     0.928330  Biso 1.000000     C
    C   1.0     0.005247     0.713317     0.963953  Biso 1.000000     C
    C   1.0     0.517614     0.713315     0.963954  Biso 1.000000     C
    C   1.0     0.029913     0.576964     0.949456  Biso 1.000000     C
    C   1.0     0.542281     0.576962     0.949459  Biso 1.000000     C
    C   1.0     0.472179     0.558528     0.046979  Biso 1.000000     C
    C   1.0     0.984546     0.558527     0.046980  Biso 1.000000     C
    C   1.0     0.374223     0.952758     0.532813  Biso 1.000000     C
    C   1.0     0.886592     0.952756     0.532813  Biso 1.000000     C
    C   1.0     0.439848     0.000000     0.572557  Biso 1.000000     C
    C   1.0     0.952214     0.000000     0.572558  Biso 1.000000     C
    C   1.0     0.467477     0.000000     0.439393  Biso 1.000000     C
    C   1.0     0.979844     0.000000     0.439392  Biso 1.000000     C
    C   1.0     0.099162     0.575277     0.508850  Biso 1.000000     C
    C   1.0     0.611531     0.575276     0.508850  Biso 1.000000     C
    C   1.0     0.012657     0.599855     0.433519  Biso 1.000000     C
    C   1.0     0.525024     0.599855     0.433519  Biso 1.000000     C
    C   1.0     0.020775     0.465659     0.562251  Biso 1.000000     C
    C   1.0     0.533141     0.465659     0.562250  Biso 1.000000     C
    C   1.0     0.341490     0.826713     0.882943  Biso 1.000000     C
    C   1.0     0.853861     0.826713     0.882943  Biso 1.000000     C
    C   1.0     0.344165     0.884727     0.923360  Biso 1.000000     C
    C   1.0     0.856537     0.884727     0.923360  Biso 1.000000     C
    C   1.0     0.328676     0.973960     0.883788  Biso 1.000000     C
    C   1.0     0.841049     0.973960     0.883787  Biso 1.000000     C
    C   1.0     0.309459     0.000000     0.801738  Biso 1.000000     C
    C   1.0     0.821832     0.000000     0.801736  Biso 1.000000     C
    C   1.0     0.306132     0.955523     0.760605  Biso 1.000000     C
    C   1.0     0.818504     0.955522     0.760604  Biso 1.000000     C
    C   1.0     0.321852     0.866028     0.799659  Biso 1.000000     C
    C   1.0     0.834224     0.866027     0.799659  Biso 1.000000     C
    C   1.0     0.357528     0.596186     0.772286  Biso 1.000000     C
    C   1.0     0.869899     0.596185     0.772287  Biso 1.000000     C
    C   1.0     0.326431     0.670744     0.716003  Biso 1.000000     C
    C   1.0     0.838803     0.670742     0.716004  Biso 1.000000     C
    C   1.0     0.286077     0.662363     0.666501  Biso 1.000000     C
    C   1.0     0.798450     0.662361     0.666501  Biso 1.000000     C
    C   1.0     0.274862     0.579831     0.669865  Biso 1.000000     C
    C   1.0     0.787235     0.579828     0.669865  Biso 1.000000     C
    C   1.0     0.305531     0.505539     0.723959  Biso 1.000000     C
    C   1.0     0.817905     0.505537     0.723959  Biso 1.000000     C
    C   1.0     0.345807     0.513150     0.773717  Biso 1.000000     C
    C   1.0     0.858180     0.513148     0.773717  Biso 1.000000     C
    C   1.0     0.000064     0.840977     0.743740  Biso 1.000000     C
    C   1.0     0.512433     0.840973     0.743743  Biso 1.000000     C
    C   1.0    -0.009934     0.906075     0.777199  Biso 1.000000     C
    C   1.0     0.502437     0.906074     0.777198  Biso 1.000000     C
    C   1.0     0.038058     0.950413     0.782440  Biso 1.000000     C
    C   1.0     0.550431     0.950410     0.782440  Biso 1.000000     C
    C   1.0     0.098155     0.932502     0.754766  Biso 1.000000     C
    C   1.0     0.610527     0.932499     0.754764  Biso 1.000000     C
    C   1.0     0.108963     0.868761     0.721368  Biso 1.000000     C
    C   1.0     0.621334     0.868757     0.721366  Biso 1.000000     C
    C   1.0     0.061183     0.823940     0.715877  Biso 1.000000     C
    C   1.0     0.573552     0.823939     0.715876  Biso 1.000000     C
    C   1.0     0.478769     0.778840     0.493427  Biso 1.000000     C
    C   1.0     0.991135     0.778841     0.493426  Biso 1.000000     C
    C   1.0     0.446607     0.802069     0.421898  Biso 1.000000     C
    C   1.0     0.958973     0.802069     0.421898  Biso 1.000000     C
    C   1.0     0.474419     0.846903     0.335975  Biso 1.000000     C
    C   1.0     0.986785     0.846902     0.335974  Biso 1.000000     C
    C   1.0     0.023060     0.871230     0.316616  Biso 1.000000     C
    C   1.0     0.535425     0.871229     0.316617  Biso 1.000000     C
    C   1.0     0.055739     0.848821     0.385698  Biso 1.000000     C
    C   1.0     0.568103     0.848819     0.385699  Biso 1.000000     C
    C   1.0     0.028449     0.803522     0.472132  Biso 1.000000     C
    C   1.0     0.540813     0.803521     0.472134  Biso 1.000000     C
    C   1.0     0.051074     0.522492     0.749923  Biso 1.000000     C
    C   1.0     0.563445     0.522492     0.749923  Biso 1.000000     C
    C   1.0     0.109892     0.498567     0.774027  Biso 1.000000     C
    C   1.0     0.622263     0.498566     0.774026  Biso 1.000000     C
    C   1.0     0.126695     0.410586     0.819657  Biso 1.000000     C
    C   1.0     0.639066     0.410585     0.819656  Biso 1.000000     C
    C   1.0     0.085997     0.341772     0.843812  Biso 1.000000     C
    C   1.0     0.598368     0.341771     0.843812  Biso 1.000000     C
    C   1.0     0.027794     0.363611     0.820837  Biso 1.000000     C
    C   1.0     0.540165     0.363611     0.820837  Biso 1.000000     C
    C   1.0     0.010610     0.451353     0.775320  Biso 1.000000     C
    C   1.0     0.522981     0.451352     0.775321  Biso 1.000000     C
    C   1.0     0.278004     0.349519     0.133661  Biso 1.000000     C
    C   1.0     0.790377     0.349517     0.133661  Biso 1.000000     C
    C   1.0     0.246207     0.460011     0.990588  Biso 1.000000     C
    C   1.0     0.758580     0.460009     0.990588  Biso 1.000000     C
    C   1.0     0.263797     0.508512     0.077596  Biso 1.000000     C
    C   1.0     0.776170     0.508510     0.077596  Biso 1.000000     C
    C   1.0     0.473483     0.335526     0.041965  Biso 1.000000     C
    C   1.0     0.985851     0.335524     0.041966  Biso 1.000000     C
    C   1.0     0.448818     0.471879     0.056462  Biso 1.000000     C
    C   1.0     0.961185     0.471878     0.056465  Biso 1.000000     C
    C   1.0     0.006554     0.490315     0.958939  Biso 1.000000     C
    C   1.0     0.518921     0.490314     0.958941  Biso 1.000000     C
    C   1.0     0.104490     0.096075     0.473112  Biso 1.000000     C
    C   1.0     0.616859     0.096073     0.473113  Biso 1.000000     C
    C   1.0     0.038867     0.016677     0.433366  Biso 1.000000     C
    C   1.0     0.551233     0.016676     0.433367  Biso 1.000000     C
    C   1.0     0.011238     0.034312     0.566531  Biso 1.000000     C
    C   1.0     0.523604     0.034311     0.566530  Biso 1.000000     C
    C   1.0     0.379565     0.473565     0.497068  Biso 1.000000     C
    C   1.0     0.891933     0.473564     0.497068  Biso 1.000000     C
    C   1.0     0.466071     0.448988     0.572400  Biso 1.000000     C
    C   1.0     0.978438     0.448987     0.572401  Biso 1.000000     C
    C   1.0     0.457955     0.583183     0.443668  Biso 1.000000     C
    C   1.0     0.970320     0.583183     0.443668  Biso 1.000000     C
    C   1.0     0.137229     0.222126     0.122983  Biso 1.000000     C
    C   1.0     0.649602     0.222126     0.122983  Biso 1.000000     C
    C   1.0     0.134559     0.164115     0.082561  Biso 1.000000     C
    C   1.0     0.646931     0.164115     0.082561  Biso 1.000000     C
    C   1.0     0.150044     0.074881     0.122135  Biso 1.000000     C
    C   1.0     0.662417     0.074880     0.122134  Biso 1.000000     C
    C   1.0     0.169257     0.037897     0.204188  Biso 1.000000     C
    C   1.0     0.681629     0.037896     0.204187  Biso 1.000000     C
    C   1.0     0.172582     0.093313     0.245323  Biso 1.000000     C
    C   1.0     0.684954     0.093312     0.245323  Biso 1.000000     C
    C   1.0     0.156866     0.182810     0.206268  Biso 1.000000     C
    C   1.0     0.669237     0.182809     0.206268  Biso 1.000000     C
    C   1.0     0.121197     0.452658     0.233635  Biso 1.000000     C
    C   1.0     0.633570     0.452656     0.233636  Biso 1.000000     C
    C   1.0     0.152295     0.378103     0.289920  Biso 1.000000     C
    C   1.0     0.664667     0.378102     0.289921  Biso 1.000000     C
    C   1.0     0.192650     0.386489     0.339418  Biso 1.000000     C
    C   1.0     0.705023     0.386487     0.339418  Biso 1.000000     C
    C   1.0     0.203865     0.469024     0.336047  Biso 1.000000     C
    C   1.0     0.716239     0.469022     0.336047  Biso 1.000000     C
    C   1.0     0.173195     0.543313     0.281951  Biso 1.000000     C
    C   1.0     0.685568     0.543311     0.281952  Biso 1.000000     C
    C   1.0     0.132918     0.535697     0.232198  Biso 1.000000     C
    C   1.0     0.645291     0.535696     0.232199  Biso 1.000000     C
    C   1.0     0.478659     0.207872     0.262171  Biso 1.000000     C
    C   1.0     0.991029     0.207872     0.262169  Biso 1.000000     C
    C   1.0     0.488654     0.142765     0.228724  Biso 1.000000     C
    C   1.0     0.000000     0.142765     0.228723  Biso 1.000000     C
    C   1.0     0.440659     0.098432     0.223481  Biso 1.000000     C
    C   1.0     0.953031     0.098430     0.223480  Biso 1.000000     C
    C   1.0     0.380563     0.116343     0.251160  Biso 1.000000     C
    C   1.0     0.892935     0.116340     0.251159  Biso 1.000000     C
    C   1.0     0.369758     0.180086     0.284555  Biso 1.000000     C
    C   1.0     0.882128     0.180083     0.284554  Biso 1.000000     C
    C   1.0     0.417541     0.224903     0.290046  Biso 1.000000     C
    C   1.0     0.929910     0.224901     0.290045  Biso 1.000000     C
    C   1.0    -0.000049     0.270003     0.512492  Biso 1.000000     C
    C   1.0     0.512317     0.270002     0.512491  Biso 1.000000     C
    C   1.0     0.032109     0.246768     0.584026  Biso 1.000000     C
    C   1.0     0.544475     0.246767     0.584026  Biso 1.000000     C
    C   1.0     0.004292     0.201938     0.669947  Biso 1.000000     C
    C   1.0     0.516658     0.201937     0.669947  Biso 1.000000     C
    C   1.0     0.455652     0.177615     0.689297  Biso 1.000000     C
    C   1.0     0.968017     0.177614     0.689298  Biso 1.000000     C
    C   1.0     0.422977     0.200029     0.620210  Biso 1.000000     C
    C   1.0     0.935342     0.200027     0.620211  Biso 1.000000     C
    C   1.0     0.450272     0.245324     0.533778  Biso 1.000000     C
    C   1.0     0.962637     0.245322     0.533779  Biso 1.000000     C
    C   1.0     0.427654     0.526351     0.255996  Biso 1.000000     C
    C   1.0     0.940025     0.526352     0.255996  Biso 1.000000     C
    C   1.0     0.368837     0.550279     0.231890  Biso 1.000000     C
    C   1.0     0.881209     0.550279     0.231889  Biso 1.000000     C
    C   1.0     0.352036     0.638260     0.186257  Biso 1.000000     C
    C   1.0     0.864408     0.638260     0.186256  Biso 1.000000     C
    C   1.0     0.392735     0.707073     0.162102  Biso 1.000000     C
    C   1.0     0.905107     0.707073     0.162101  Biso 1.000000     C
    C   1.0     0.450938     0.685232     0.185080  Biso 1.000000     C
    C   1.0     0.963309     0.685232     0.185079  Biso 1.000000     C
    C   1.0     0.468119     0.597490     0.230598  Biso 1.000000     C
    C   1.0     0.980491     0.597490     0.230598  Biso 1.000000     C
    N   1.0     0.232647     0.622098     0.930934  Biso 1.000000     N
    N   1.0     0.745019     0.622097     0.930934  Biso 1.000000     N
    N   1.0    -0.020000     0.634001     0.965473  Biso 1.000000     N
    N   1.0     0.492370     0.633998     0.965476  Biso 1.000000     N
    N   1.0     0.437735     0.970820     0.531411  Biso 1.000000     N
    N   1.0     0.950103     0.970819     0.531411  Biso 1.000000     N
    N   1.0     0.033569     0.561617     0.519651  Biso 1.000000     N
    N   1.0     0.545937     0.561616     0.519650  Biso 1.000000     N
    N   1.0     0.357406     0.738162     0.919785  Biso 1.000000     N
    N   1.0     0.869778     0.738162     0.919784  Biso 1.000000     N
    N   1.0     0.395728     0.606422     0.823084  Biso 1.000000     N
    N   1.0     0.908100     0.606421     0.823085  Biso 1.000000     N
    N   1.0     0.465667     0.794925     0.737298  Biso 1.000000     N
    N   1.0     0.978030     0.794924     0.737300  Biso 1.000000     N
    N   1.0     0.453212     0.734835     0.580549  Biso 1.000000     N
    N   1.0     0.965579     0.734836     0.580549  Biso 1.000000     N
    N   1.0     0.032583     0.608464     0.703977  Biso 1.000000     N
    N   1.0     0.544953     0.608464     0.703977  Biso 1.000000     N
    N   1.0     0.246078     0.426738     0.074992  Biso 1.000000     N
    N   1.0     0.758450     0.426737     0.074992  Biso 1.000000     N
    N   1.0     0.498726     0.414844     0.040439  Biso 1.000000     N
    N   1.0     0.000000     0.414843     0.040440  Biso 1.000000     N
    N   1.0     0.040979     0.078018     0.474511  Biso 1.000000     N
    N   1.0     0.553347     0.078016     0.474511  Biso 1.000000     N
    N   1.0     0.445158     0.487226     0.486269  Biso 1.000000     N
    N   1.0     0.957526     0.487225     0.486269  Biso 1.000000     N
    N   1.0     0.121320     0.310680     0.086139  Biso 1.000000     N
    N   1.0     0.633691     0.310679     0.086139  Biso 1.000000     N
    N   1.0     0.082996     0.442418     0.182840  Biso 1.000000     N
    N   1.0     0.595368     0.442417     0.182842  Biso 1.000000     N
    N   1.0     0.013064     0.253913     0.268624  Biso 1.000000     N
    N   1.0     0.525427     0.253913     0.268624  Biso 1.000000     N
    N   1.0     0.025513     0.313998     0.425371  Biso 1.000000     N
    N   1.0     0.537881     0.314000     0.425371  Biso 1.000000     N
    N   1.0     0.446144     0.440379     0.301945  Biso 1.000000     N
    N   1.0     0.958514     0.440379     0.301945  Biso 1.000000     N
