#======================================================================

# CRYSTAL DATA

#----------------------------------------------------------------------

data_VESTA_phase_1


_pd_phase_name                         MOF
_cell_length_a                         11.70600
_cell_length_b                         20.74200
_cell_length_c                         23.39600
_cell_angle_alpha                      86.75000
_cell_angle_beta                       87.62400
_cell_angle_gamma                      83.61400
_symmetry_space_group_name_H-M         "P 1"
_symmetry_Int_Tables_number            1

loop_
_symmetry_equiv_pos_as_xyz
   "x, y, z"

loop_
   _atom_site_label
   _atom_site_occupancy
   _atom_site_fract_x
   _atom_site_fract_y
   _atom_site_fract_z
   _atom_site_adp_type
   _atom_site_B_iso_or_equiv
   _atom_site_type_symbol
    H   1.0     0.244767     0.477644     0.084157  Biso 1.000000     H
    H   1.0     0.244772     0.477638     0.584160  Biso 1.000000     H
    H   1.0     0.244764     0.977637     0.084157  Biso 1.000000     H
    H   1.0     0.244771     0.977631     0.584158  Biso 1.000000     H
    H   1.0     0.744771     0.477644     0.084156  Biso 1.000000     H
    H   1.0     0.744776     0.477638     0.584159  Biso 1.000000     H
    H   1.0     0.744768     0.977638     0.084157  Biso 1.000000     H
    H   1.0     0.744775     0.977632     0.584158  Biso 1.000000     H
    H   1.0     0.009466     0.141030     0.365555  Biso 1.000000     H
    H   1.0     0.009469     0.141024     0.865560  Biso 1.000000     H
    H   1.0     0.009458     0.641024     0.365553  Biso 1.000000     H
    H   1.0     0.009473     0.641017     0.865562  Biso 1.000000     H
    H   1.0     0.509492     0.141030     0.365555  Biso 1.000000     H
    H   1.0     0.509493     0.141023     0.865560  Biso 1.000000     H
    H   1.0     0.509482     0.641025     0.365553  Biso 1.000000     H
    H   1.0     0.509497     0.641016     0.865561  Biso 1.000000     H
    H   1.0     0.381707     0.195948     0.362281  Biso 1.000000     H
    H   1.0     0.381706     0.195936     0.862294  Biso 1.000000     H
    H   1.0     0.381696     0.695937     0.362287  Biso 1.000000     H
    H   1.0     0.381712     0.695934     0.862290  Biso 1.000000     H
    H   1.0     0.881722     0.195949     0.362281  Biso 1.000000     H
    H   1.0     0.881723     0.195938     0.862293  Biso 1.000000     H
    H   1.0     0.881712     0.695938     0.362286  Biso 1.000000     H
    H   1.0     0.881728     0.695936     0.862289  Biso 1.000000     H
    H   1.0     0.336960     0.190605     0.236798  Biso 1.000000     H
    H   1.0     0.336971     0.190602     0.736803  Biso 1.000000     H
    H   1.0     0.336963     0.690602     0.236796  Biso 1.000000     H
    H   1.0     0.336968     0.690594     0.736805  Biso 1.000000     H
    H   1.0     0.836976     0.190608     0.236797  Biso 1.000000     H
    H   1.0     0.836987     0.190604     0.736803  Biso 1.000000     H
    H   1.0     0.836978     0.690604     0.236796  Biso 1.000000     H
    H   1.0     0.836984     0.690597     0.736805  Biso 1.000000     H
    H   1.0     0.340635     0.259130     0.279084  Biso 1.000000     H
    H   1.0     0.340631     0.259135     0.779086  Biso 1.000000     H
    H   1.0     0.340622     0.759136     0.279078  Biso 1.000000     H
    H   1.0     0.340641     0.759121     0.779091  Biso 1.000000     H
    H   1.0     0.840654     0.259133     0.279085  Biso 1.000000     H
    H   1.0     0.840652     0.259136     0.779088  Biso 1.000000     H
    H   1.0     0.840642     0.759137     0.279079  Biso 1.000000     H
    H   1.0     0.840661     0.759122     0.779092  Biso 1.000000     H
    H   1.0     0.012865     0.272283     0.329913  Biso 1.000000     H
    H   1.0     0.012882     0.272286     0.829921  Biso 1.000000     H
    H   1.0     0.012875     0.772288     0.329913  Biso 1.000000     H
    H   1.0     0.012874     0.772272     0.829921  Biso 1.000000     H
    H   1.0     0.512880     0.272284     0.329913  Biso 1.000000     H
    H   1.0     0.512898     0.272289     0.829920  Biso 1.000000     H
    H   1.0     0.512891     0.772290     0.329913  Biso 1.000000     H
    H   1.0     0.512889     0.772274     0.829921  Biso 1.000000     H
    H   1.0     0.134341     0.212058     0.323784  Biso 1.000000     H
    H   1.0     0.134350     0.212056     0.823789  Biso 1.000000     H
    H   1.0     0.134341     0.712056     0.323781  Biso 1.000000     H
    H   1.0     0.134349     0.712047     0.823791  Biso 1.000000     H
    H   1.0     0.634358     0.212061     0.323785  Biso 1.000000     H
    H   1.0     0.634367     0.212060     0.823790  Biso 1.000000     H
    H   1.0     0.634358     0.712060     0.323783  Biso 1.000000     H
    H   1.0     0.634366     0.712050     0.823792  Biso 1.000000     H
    H   1.0     0.455795     0.000858     0.099694  Biso 1.000000     H
    H   1.0     0.455799     0.000850     0.599698  Biso 1.000000     H
    H   1.0     0.455793     0.500851     0.099694  Biso 1.000000     H
    H   1.0     0.455795     0.500843     0.599698  Biso 1.000000     H
    H   1.0     0.955803     0.000857     0.099692  Biso 1.000000     H
    H   1.0     0.955808     0.000849     0.599696  Biso 1.000000     H
    H   1.0     0.955802     0.500849     0.099692  Biso 1.000000     H
    H   1.0     0.955804     0.500842     0.599696  Biso 1.000000     H
    H   1.0     0.423524     0.076490     0.060699  Biso 1.000000     H
    H   1.0     0.423534     0.076483     0.560702  Biso 1.000000     H
    H   1.0     0.423521     0.576483     0.060698  Biso 1.000000     H
    H   1.0     0.423529     0.576476     0.560702  Biso 1.000000     H
    H   1.0     0.923534     0.076489     0.060697  Biso 1.000000     H
    H   1.0     0.923543     0.076482     0.560700  Biso 1.000000     H
    H   1.0     0.923530     0.576482     0.060697  Biso 1.000000     H
    H   1.0     0.923538     0.576475     0.560700  Biso 1.000000     H
    H   1.0     0.414345     0.497856     0.483434  Biso 1.000000     H
    H   1.0     0.414352     0.497854     0.983433  Biso 1.000000     H
    H   1.0     0.414341     0.997851     0.483434  Biso 1.000000     H
    H   1.0     0.414349     0.997848     0.983432  Biso 1.000000     H
    H   1.0     0.914353     0.497856     0.483435  Biso 1.000000     H
    H   1.0     0.914359     0.497854     0.983433  Biso 1.000000     H
    H   1.0     0.914349     0.997851     0.483434  Biso 1.000000     H
    H   1.0     0.914356     0.997848     0.983432  Biso 1.000000     H
    H   1.0     0.416324     0.429005     0.033440  Biso 1.000000     H
    H   1.0     0.416328     0.429000     0.533440  Biso 1.000000     H
    H   1.0     0.416321     0.929000     0.033440  Biso 1.000000     H
    H   1.0     0.416327     0.928995     0.533440  Biso 1.000000     H
    H   1.0     0.916330     0.429004     0.033441  Biso 1.000000     H
    H   1.0     0.916333     0.429000     0.533440  Biso 1.000000     H
    H   1.0     0.916327     0.929000     0.033440  Biso 1.000000     H
    H   1.0     0.916333     0.928994     0.533440  Biso 1.000000     H
    H   1.0     0.175522     0.091146     0.058398  Biso 1.000000     H
    H   1.0     0.175527     0.091142     0.558401  Biso 1.000000     H
    H   1.0     0.175520     0.591141     0.058398  Biso 1.000000     H
    H   1.0     0.175526     0.591136     0.558399  Biso 1.000000     H
    H   1.0     0.675527     0.091147     0.058398  Biso 1.000000     H
    H   1.0     0.675532     0.091143     0.558401  Biso 1.000000     H
    H   1.0     0.675525     0.591141     0.058399  Biso 1.000000     H
    H   1.0     0.675532     0.591136     0.558400  Biso 1.000000     H
    H   1.0     0.275383     0.092782     0.498290  Biso 1.000000     H
    H   1.0     0.275387     0.092781     0.998287  Biso 1.000000     H
    H   1.0     0.275381     0.592775     0.498289  Biso 1.000000     H
    H   1.0     0.275387     0.592772     0.998287  Biso 1.000000     H
    H   1.0     0.775388     0.092783     0.498290  Biso 1.000000     H
    H   1.0     0.775392     0.092781     0.998287  Biso 1.000000     H
    H   1.0     0.775387     0.592776     0.498289  Biso 1.000000     H
    H   1.0     0.775393     0.592773     0.998287  Biso 1.000000     H
    H   1.0     0.255163     0.022347     0.415850  Biso 1.000000     H
    H   1.0     0.255168     0.022341     0.915853  Biso 1.000000     H
    H   1.0     0.255160     0.522341     0.415851  Biso 1.000000     H
    H   1.0     0.255167     0.522335     0.915851  Biso 1.000000     H
    H   1.0     0.755166     0.022348     0.415850  Biso 1.000000     H
    H   1.0     0.755172     0.022342     0.915853  Biso 1.000000     H
    H   1.0     0.755164     0.522342     0.415851  Biso 1.000000     H
    H   1.0     0.755171     0.522336     0.915851  Biso 1.000000     H
    H   1.0     0.490473     0.358949     0.134460  Biso 1.000000     H
    H   1.0     0.490474     0.358942     0.634465  Biso 1.000000     H
    H   1.0     0.490464     0.858943     0.134458  Biso 1.000000     H
    H   1.0     0.490479     0.858935     0.634466  Biso 1.000000     H
    H   1.0     0.990497     0.358948     0.134460  Biso 1.000000     H
    H   1.0     0.990498     0.358942     0.634464  Biso 1.000000     H
    H   1.0     0.990488     0.858943     0.134458  Biso 1.000000     H
    H   1.0     0.990503     0.858935     0.634466  Biso 1.000000     H
    H   1.0     0.118265     0.304051     0.137727  Biso 1.000000     H
    H   1.0     0.118265     0.304040     0.637739  Biso 1.000000     H
    H   1.0     0.118254     0.804040     0.137732  Biso 1.000000     H
    H   1.0     0.118271     0.804038     0.637734  Biso 1.000000     H
    H   1.0     0.618281     0.304053     0.137725  Biso 1.000000     H
    H   1.0     0.618280     0.304042     0.637738  Biso 1.000000     H
    H   1.0     0.618270     0.804042     0.137731  Biso 1.000000     H
    H   1.0     0.618287     0.804039     0.637733  Biso 1.000000     H
    H   1.0     0.163002     0.309380     0.263217  Biso 1.000000     H
    H   1.0     0.163013     0.309376     0.763223  Biso 1.000000     H
    H   1.0     0.163004     0.809376     0.263215  Biso 1.000000     H
    H   1.0     0.163010     0.809369     0.763225  Biso 1.000000     H
    H   1.0     0.663017     0.309382     0.263217  Biso 1.000000     H
    H   1.0     0.663028     0.309379     0.763222  Biso 1.000000     H
    H   1.0     0.663019     0.809378     0.263215  Biso 1.000000     H
    H   1.0     0.663025     0.809371     0.763224  Biso 1.000000     H
    H   1.0     0.159342     0.240848     0.220932  Biso 1.000000     H
    H   1.0     0.159340     0.240851     0.720934  Biso 1.000000     H
    H   1.0     0.159330     0.740852     0.220926  Biso 1.000000     H
    H   1.0     0.159349     0.740837     0.720939  Biso 1.000000     H
    H   1.0     0.659363     0.240849     0.220933  Biso 1.000000     H
    H   1.0     0.659359     0.240853     0.720935  Biso 1.000000     H
    H   1.0     0.659350     0.740854     0.220927  Biso 1.000000     H
    H   1.0     0.659369     0.740839     0.720940  Biso 1.000000     H
    H   1.0     0.487097     0.227690     0.170100  Biso 1.000000     H
    H   1.0     0.487115     0.227696     0.670108  Biso 1.000000     H
    H   1.0     0.487108     0.727696     0.170100  Biso 1.000000     H
    H   1.0     0.487107     0.727681     0.670108  Biso 1.000000     H
    H   1.0     0.987114     0.227694     0.170100  Biso 1.000000     H
    H   1.0     0.987130     0.227697     0.670108  Biso 1.000000     H
    H   1.0     0.987123     0.727698     0.170100  Biso 1.000000     H
    H   1.0     0.987122     0.727683     0.670108  Biso 1.000000     H
    H   1.0     0.365628     0.287920     0.176228  Biso 1.000000     H
    H   1.0     0.365636     0.287918     0.676233  Biso 1.000000     H
    H   1.0     0.365628     0.787918     0.176225  Biso 1.000000     H
    H   1.0     0.365636     0.787908     0.676235  Biso 1.000000     H
    H   1.0     0.865645     0.287924     0.176229  Biso 1.000000     H
    H   1.0     0.865653     0.287921     0.676234  Biso 1.000000     H
    H   1.0     0.865645     0.787922     0.176227  Biso 1.000000     H
    H   1.0     0.865653     0.787912     0.676236  Biso 1.000000     H
    H   1.0     0.044184     0.499125     0.400318  Biso 1.000000     H
    H   1.0     0.044189     0.499117     0.900322  Biso 1.000000     H
    H   1.0     0.044183     0.999117     0.400318  Biso 1.000000     H
    H   1.0     0.044185     0.999109     0.900322  Biso 1.000000     H
    H   1.0     0.544193     0.499123     0.400316  Biso 1.000000     H
    H   1.0     0.544198     0.499115     0.900320  Biso 1.000000     H
    H   1.0     0.544192     0.999115     0.400316  Biso 1.000000     H
    H   1.0     0.544194     0.999108     0.900320  Biso 1.000000     H
    H   1.0     0.076440     0.423486     0.439310  Biso 1.000000     H
    H   1.0     0.076449     0.423479     0.939313  Biso 1.000000     H
    H   1.0     0.076437     0.923479     0.439310  Biso 1.000000     H
    H   1.0     0.076445     0.923472     0.939313  Biso 1.000000     H
    H   1.0     0.576449     0.423485     0.439309  Biso 1.000000     H
    H   1.0     0.576459     0.423478     0.939312  Biso 1.000000     H
    H   1.0     0.576446     0.923478     0.439308  Biso 1.000000     H
    H   1.0     0.576454     0.923471     0.939312  Biso 1.000000     H
    H   1.0     0.085621     0.002124     0.016590  Biso 1.000000     H
    H   1.0     0.085628     0.002121     0.516589  Biso 1.000000     H
    H   1.0     0.085617     0.502119     0.016590  Biso 1.000000     H
    H   1.0     0.085624     0.502115     0.516588  Biso 1.000000     H
    H   1.0     0.585629     0.002124     0.016590  Biso 1.000000     H
    H   1.0     0.585635     0.002121     0.516589  Biso 1.000000     H
    H   1.0     0.585624     0.502119     0.016590  Biso 1.000000     H
    H   1.0     0.585632     0.502115     0.516588  Biso 1.000000     H
    H   1.0     0.083657     0.070975     0.466577  Biso 1.000000     H
    H   1.0     0.083661     0.070970     0.966577  Biso 1.000000     H
    H   1.0     0.083654     0.570970     0.466576  Biso 1.000000     H
    H   1.0     0.083660     0.570964     0.966576  Biso 1.000000     H
    H   1.0     0.583663     0.070974     0.466577  Biso 1.000000     H
    H   1.0     0.583666     0.070970     0.966577  Biso 1.000000     H
    H   1.0     0.583660     0.570969     0.466576  Biso 1.000000     H
    H   1.0     0.583666     0.570964     0.966577  Biso 1.000000     H
    H   1.0     0.324458     0.408834     0.441615  Biso 1.000000     H
    H   1.0     0.324463     0.408830     0.941618  Biso 1.000000     H
    H   1.0     0.324456     0.908828     0.441616  Biso 1.000000     H
    H   1.0     0.324463     0.908823     0.941617  Biso 1.000000     H
    H   1.0     0.824463     0.408834     0.441616  Biso 1.000000     H
    H   1.0     0.824468     0.408830     0.941618  Biso 1.000000     H
    H   1.0     0.824461     0.908828     0.441616  Biso 1.000000     H
    H   1.0     0.824468     0.908823     0.941617  Biso 1.000000     H
    H   1.0     0.224599     0.407188     0.001730  Biso 1.000000     H
    H   1.0     0.224602     0.407186     0.501727  Biso 1.000000     H
    H   1.0     0.224597     0.907181     0.001729  Biso 1.000000     H
    H   1.0     0.224604     0.907178     0.501727  Biso 1.000000     H
    H   1.0     0.724604     0.407189     0.001730  Biso 1.000000     H
    H   1.0     0.724608     0.407187     0.501727  Biso 1.000000     H
    H   1.0     0.724603     0.907182     0.001730  Biso 1.000000     H
    H   1.0     0.724609     0.907179     0.501727  Biso 1.000000     H
    C   1.0     0.437101     0.159092     0.338249  Biso 1.000000     C
    C   1.0     0.437113     0.159094     0.838251  Biso 1.000000     C
    C   1.0     0.437103     0.659095     0.338244  Biso 1.000000     C
    C   1.0     0.437109     0.659081     0.838255  Biso 1.000000     C
    C   1.0     0.937115     0.159092     0.338250  Biso 1.000000     C
    C   1.0     0.937127     0.159093     0.838251  Biso 1.000000     C
    C   1.0     0.937117     0.659094     0.338244  Biso 1.000000     C
    C   1.0     0.937123     0.659080     0.838256  Biso 1.000000     C
    C   1.0     0.392733     0.225009     0.251029  Biso 1.000000     C
    C   1.0     0.392744     0.224996     0.751051  Biso 1.000000     C
    C   1.0     0.392736     0.724995     0.251045  Biso 1.000000     C
    C   1.0     0.392741     0.724996     0.751039  Biso 1.000000     C
    C   1.0     0.892751     0.225009     0.251032  Biso 1.000000     C
    C   1.0     0.892761     0.224997     0.751051  Biso 1.000000     C
    C   1.0     0.892753     0.724995     0.251045  Biso 1.000000     C
    C   1.0     0.892759     0.724997     0.751040  Biso 1.000000     C
    C   1.0     0.061222     0.237726     0.301004  Biso 1.000000     C
    C   1.0     0.061211     0.237712     0.801017  Biso 1.000000     C
    C   1.0     0.061200     0.737710     0.301011  Biso 1.000000     C
    C   1.0     0.061228     0.737713     0.801012  Biso 1.000000     C
    C   1.0     0.561239     0.237727     0.301004  Biso 1.000000     C
    C   1.0     0.561225     0.237711     0.801018  Biso 1.000000     C
    C   1.0     0.561214     0.737710     0.301011  Biso 1.000000     C
    C   1.0     0.561242     0.737713     0.801013  Biso 1.000000     C
    C   1.0     0.386357     0.039148     0.088574  Biso 1.000000     C
    C   1.0     0.386364     0.039141     0.588577  Biso 1.000000     C
    C   1.0     0.386355     0.539140     0.088574  Biso 1.000000     C
    C   1.0     0.386360     0.539134     0.588577  Biso 1.000000     C
    C   1.0     0.886366     0.039147     0.088573  Biso 1.000000     C
    C   1.0     0.886373     0.039140     0.588576  Biso 1.000000     C
    C   1.0     0.886364     0.539139     0.088573  Biso 1.000000     C
    C   1.0     0.886369     0.539133     0.588576  Biso 1.000000     C
    C   1.0     0.361038     0.467659     0.010906  Biso 1.000000     C
    C   1.0     0.361043     0.467657     0.510908  Biso 1.000000     C
    C   1.0     0.361034     0.967655     0.010905  Biso 1.000000     C
    C   1.0     0.361041     0.967650     0.510907  Biso 1.000000     C
    C   1.0     0.861045     0.467659     0.010906  Biso 1.000000     C
    C   1.0     0.861049     0.467657     0.510908  Biso 1.000000     C
    C   1.0     0.861041     0.967654     0.010905  Biso 1.000000     C
    C   1.0     0.861048     0.967650     0.510907  Biso 1.000000     C
    C   1.0     0.221984     0.061938     0.025316  Biso 1.000000     C
    C   1.0     0.221988     0.061934     0.525317  Biso 1.000000     C
    C   1.0     0.221979     0.561932     0.025315  Biso 1.000000     C
    C   1.0     0.221987     0.561927     0.525317  Biso 1.000000     C
    C   1.0     0.721990     0.061938     0.025316  Biso 1.000000     C
    C   1.0     0.721994     0.061935     0.525317  Biso 1.000000     C
    C   1.0     0.721985     0.561932     0.025315  Biso 1.000000     C
    C   1.0     0.721992     0.561928     0.525317  Biso 1.000000     C
    C   1.0     0.062845     0.340891     0.161768  Biso 1.000000     C
    C   1.0     0.062856     0.340892     0.661769  Biso 1.000000     C
    C   1.0     0.062846     0.840893     0.161762  Biso 1.000000     C
    C   1.0     0.062853     0.840879     0.661774  Biso 1.000000     C
    C   1.0     0.562859     0.340890     0.161769  Biso 1.000000     C
    C   1.0     0.562870     0.340892     0.661770  Biso 1.000000     C
    C   1.0     0.562861     0.840892     0.161763  Biso 1.000000     C
    C   1.0     0.562867     0.840878     0.661774  Biso 1.000000     C
    C   1.0     0.107229     0.274987     0.248967  Biso 1.000000     C
    C   1.0     0.107239     0.274975     0.748986  Biso 1.000000     C
    C   1.0     0.107231     0.774974     0.248981  Biso 1.000000     C
    C   1.0     0.107237     0.774975     0.748976  Biso 1.000000     C
    C   1.0     0.607246     0.274988     0.248967  Biso 1.000000     C
    C   1.0     0.607257     0.274975     0.748988  Biso 1.000000     C
    C   1.0     0.607249     0.774974     0.248982  Biso 1.000000     C
    C   1.0     0.607254     0.774975     0.748977  Biso 1.000000     C
    C   1.0     0.438770     0.262271     0.199001  Biso 1.000000     C
    C   1.0     0.438756     0.262255     0.699015  Biso 1.000000     C
    C   1.0     0.438745     0.762253     0.199008  Biso 1.000000     C
    C   1.0     0.438774     0.762257     0.699010  Biso 1.000000     C
    C   1.0     0.938784     0.262270     0.199002  Biso 1.000000     C
    C   1.0     0.938773     0.262256     0.699016  Biso 1.000000     C
    C   1.0     0.938761     0.762254     0.199009  Biso 1.000000     C
    C   1.0     0.938789     0.762258     0.699011  Biso 1.000000     C
    C   1.0     0.113613     0.460831     0.411440  Biso 1.000000     C
    C   1.0     0.113620     0.460824     0.911443  Biso 1.000000     C
    C   1.0     0.113612     0.960823     0.411440  Biso 1.000000     C
    C   1.0     0.113617     0.960817     0.911443  Biso 1.000000     C
    C   1.0     0.613622     0.460830     0.411440  Biso 1.000000     C
    C   1.0     0.613630     0.460824     0.911442  Biso 1.000000     C
    C   1.0     0.613621     0.960822     0.411439  Biso 1.000000     C
    C   1.0     0.613626     0.960816     0.911442  Biso 1.000000     C
    C   1.0     0.138932     0.032315     0.489112  Biso 1.000000     C
    C   1.0     0.138937     0.032313     0.989114  Biso 1.000000     C
    C   1.0     0.138928     0.532310     0.489111  Biso 1.000000     C
    C   1.0     0.138935     0.532306     0.989113  Biso 1.000000     C
    C   1.0     0.638939     0.032315     0.489112  Biso 1.000000     C
    C   1.0     0.638944     0.032313     0.989114  Biso 1.000000     C
    C   1.0     0.638935     0.532310     0.489111  Biso 1.000000     C
    C   1.0     0.638942     0.532306     0.989113  Biso 1.000000     C
    C   1.0     0.277993     0.438038     0.474700  Biso 1.000000     C
    C   1.0     0.277996     0.438035     0.974701  Biso 1.000000     C
    C   1.0     0.277988     0.938032     0.474699  Biso 1.000000     C
    C   1.0     0.277996     0.938027     0.974701  Biso 1.000000     C
    C   1.0     0.777998     0.438039     0.474700  Biso 1.000000     C
    C   1.0     0.778002     0.438036     0.974702  Biso 1.000000     C
    C   1.0     0.777993     0.938033     0.474700  Biso 1.000000     C
    C   1.0     0.778001     0.938028     0.974701  Biso 1.000000     C
    N   1.0     0.485940     0.188901     0.284935  Biso 1.000000     N
    N   1.0     0.485972     0.188874     0.784931  Biso 1.000000     N
    N   1.0     0.485965     0.688871     0.284923  Biso 1.000000     N
    N   1.0     0.485953     0.688885     0.784940  Biso 1.000000     N
    N   1.0     0.985960     0.188900     0.284936  Biso 1.000000     N
    N   1.0     0.985988     0.188876     0.784933  Biso 1.000000     N
    N   1.0     0.985982     0.688872     0.284925  Biso 1.000000     N
    N   1.0     0.985970     0.688886     0.784942  Biso 1.000000     N
    N   1.0     0.300440     0.009969     0.055165  Biso 1.000000     N
    N   1.0     0.300446     0.009966     0.555166  Biso 1.000000     N
    N   1.0     0.300437     0.509963     0.055164  Biso 1.000000     N
    N   1.0     0.300439     0.509958     0.555168  Biso 1.000000     N
    N   1.0     0.800446     0.009970     0.055165  Biso 1.000000     N
    N   1.0     0.800453     0.009966     0.555165  Biso 1.000000     N
    N   1.0     0.800444     0.509964     0.055163  Biso 1.000000     N
    N   1.0     0.800445     0.509959     0.555167  Biso 1.000000     N
    N   1.0     0.013997     0.311109     0.215088  Biso 1.000000     N
    N   1.0     0.014025     0.311085     0.715085  Biso 1.000000     N
    N   1.0     0.014019     0.811081     0.215077  Biso 1.000000     N
    N   1.0     0.014007     0.811095     0.715094  Biso 1.000000     N
    N   1.0     0.514012     0.311112     0.215091  Biso 1.000000     N
    N   1.0     0.514044     0.311085     0.715087  Biso 1.000000     N
    N   1.0     0.514036     0.811082     0.215078  Biso 1.000000     N
    N   1.0     0.514025     0.811096     0.715096  Biso 1.000000     N
    N   1.0     0.199526     0.490003     0.444855  Biso 1.000000     N
    N   1.0     0.199532     0.490000     0.944855  Biso 1.000000     N
    N   1.0     0.199524     0.989998     0.444853  Biso 1.000000     N
    N   1.0     0.199526     0.989992     0.944857  Biso 1.000000     N
    N   1.0     0.699533     0.490003     0.444854  Biso 1.000000     N
    N   1.0     0.699539     0.490000     0.944855  Biso 1.000000     N
    N   1.0     0.699530     0.989998     0.444853  Biso 1.000000     N
    N   1.0     0.699532     0.989993     0.944857  Biso 1.000000     N
    O   1.0     0.245463     0.113638     0.298067  Biso 1.000000     O
    O   1.0     0.245475     0.113637     0.798073  Biso 1.000000     O
    O   1.0     0.245466     0.613635     0.298067  Biso 1.000000     O
    O   1.0     0.245468     0.613628     0.798073  Biso 1.000000     O
    O   1.0     0.745481     0.113640     0.298061  Biso 1.000000     O
    O   1.0     0.745493     0.113638     0.798067  Biso 1.000000     O
    O   1.0     0.745484     0.613637     0.298061  Biso 1.000000     O
    O   1.0     0.745486     0.613629     0.798067  Biso 1.000000     O
    O   1.0     0.439294     0.039554     0.297743  Biso 1.000000     O
    O   1.0     0.439299     0.039551     0.797746  Biso 1.000000     O
    O   1.0     0.439289     0.539548     0.297744  Biso 1.000000     O
    O   1.0     0.439298     0.539544     0.797745  Biso 1.000000     O
    O   1.0     0.939310     0.039554     0.297745  Biso 1.000000     O
    O   1.0     0.939316     0.039550     0.797748  Biso 1.000000     O
    O   1.0     0.939305     0.539548     0.297746  Biso 1.000000     O
    O   1.0     0.939315     0.539544     0.797747  Biso 1.000000     O
    O   1.0     0.332446     0.064496     0.393077  Biso 1.000000     O
    O   1.0     0.332456     0.064490     0.893080  Biso 1.000000     O
    O   1.0     0.332441     0.564492     0.393076  Biso 1.000000     O
    O   1.0     0.332455     0.564482     0.893081  Biso 1.000000     O
    O   1.0     0.832440     0.064501     0.393075  Biso 1.000000     O
    O   1.0     0.832450     0.064495     0.893078  Biso 1.000000     O
    O   1.0     0.832435     0.564496     0.393074  Biso 1.000000     O
    O   1.0     0.832451     0.564486     0.893079  Biso 1.000000     O
    O   1.0     0.449352     0.102535     0.172249  Biso 1.000000     O
    O   1.0     0.449358     0.102531     0.672251  Biso 1.000000     O
    O   1.0     0.449349     0.602529     0.172249  Biso 1.000000     O
    O   1.0     0.449355     0.602523     0.672251  Biso 1.000000     O
    O   1.0     0.949371     0.102533     0.172249  Biso 1.000000     O
    O   1.0     0.949377     0.102529     0.672251  Biso 1.000000     O
    O   1.0     0.949368     0.602527     0.172249  Biso 1.000000     O
    O   1.0     0.949374     0.602522     0.672250  Biso 1.000000     O
    O   1.0     0.229794     0.122075     0.152274  Biso 1.000000     O
    O   1.0     0.229800     0.122071     0.652276  Biso 1.000000     O
    O   1.0     0.229790     0.622068     0.152275  Biso 1.000000     O
    O   1.0     0.229797     0.622064     0.652276  Biso 1.000000     O
    O   1.0     0.729812     0.122076     0.152274  Biso 1.000000     O
    O   1.0     0.729818     0.122072     0.652276  Biso 1.000000     O
    O   1.0     0.729808     0.622069     0.152275  Biso 1.000000     O
    O   1.0     0.729816     0.622065     0.652276  Biso 1.000000     O
    O   1.0     0.306513     0.016846     0.197369  Biso 1.000000     O
    O   1.0     0.306518     0.016842     0.697372  Biso 1.000000     O
    O   1.0     0.306511     0.516839     0.197369  Biso 1.000000     O
    O   1.0     0.306515     0.516835     0.697372  Biso 1.000000     O
    O   1.0     0.806530     0.016846     0.197369  Biso 1.000000     O
    O   1.0     0.806535     0.016842     0.697371  Biso 1.000000     O
    O   1.0     0.806527     0.516838     0.197369  Biso 1.000000     O
    O   1.0     0.806531     0.516835     0.697372  Biso 1.000000     O
    O   1.0     0.254516     0.386371     0.201878  Biso 1.000000     O
    O   1.0     0.254527     0.386369     0.701883  Biso 1.000000     O
    O   1.0     0.254519     0.886368     0.201878  Biso 1.000000     O
    O   1.0     0.254521     0.886360     0.701884  Biso 1.000000     O
    O   1.0     0.754534     0.386372     0.201872  Biso 1.000000     O
    O   1.0     0.754546     0.386371     0.701877  Biso 1.000000     O
    O   1.0     0.754537     0.886370     0.201872  Biso 1.000000     O
    O   1.0     0.754539     0.886362     0.701878  Biso 1.000000     O
    O   1.0     0.060661     0.460434     0.202288  Biso 1.000000     O
    O   1.0     0.060666     0.460431     0.702291  Biso 1.000000     O
    O   1.0     0.060656     0.960428     0.202289  Biso 1.000000     O
    O   1.0     0.060665     0.960424     0.702290  Biso 1.000000     O
    O   1.0     0.560678     0.460434     0.202290  Biso 1.000000     O
    O   1.0     0.560683     0.460430     0.702293  Biso 1.000000     O
    O   1.0     0.560673     0.960428     0.202291  Biso 1.000000     O
    O   1.0     0.560682     0.960424     0.702292  Biso 1.000000     O
    O   1.0     0.167293     0.435552     0.106916  Biso 1.000000     O
    O   1.0     0.167300     0.435546     0.606918  Biso 1.000000     O
    O   1.0     0.167287     0.935548     0.106914  Biso 1.000000     O
    O   1.0     0.167302     0.935538     0.606920  Biso 1.000000     O
    O   1.0     0.667287     0.435556     0.106914  Biso 1.000000     O
    O   1.0     0.667295     0.435551     0.606917  Biso 1.000000     O
    O   1.0     0.667283     0.935552     0.106913  Biso 1.000000     O
    O   1.0     0.667298     0.935542     0.606918  Biso 1.000000     O
    O   1.0     0.050629     0.397450     0.327753  Biso 1.000000     O
    O   1.0     0.050634     0.397446     0.827755  Biso 1.000000     O
    O   1.0     0.050625     0.897444     0.327753  Biso 1.000000     O
    O   1.0     0.050632     0.897438     0.827755  Biso 1.000000     O
    O   1.0     0.550647     0.397448     0.327752  Biso 1.000000     O
    O   1.0     0.550653     0.397444     0.827754  Biso 1.000000     O
    O   1.0     0.550644     0.897442     0.327752  Biso 1.000000     O
    O   1.0     0.550651     0.897437     0.827754  Biso 1.000000     O
    O   1.0     0.270192     0.377919     0.347726  Biso 1.000000     O
    O   1.0     0.270198     0.377916     0.847728  Biso 1.000000     O
    O   1.0     0.270188     0.877912     0.347726  Biso 1.000000     O
    O   1.0     0.270196     0.877909     0.847728  Biso 1.000000     O
    O   1.0     0.770210     0.377920     0.347726  Biso 1.000000     O
    O   1.0     0.770216     0.377916     0.847728  Biso 1.000000     O
    O   1.0     0.770206     0.877913     0.347726  Biso 1.000000     O
    O   1.0     0.770213     0.877909     0.847728  Biso 1.000000     O
    O   1.0     0.193443     0.483149     0.302641  Biso 1.000000     O
    O   1.0     0.193448     0.483145     0.802643  Biso 1.000000     O
    O   1.0     0.193441     0.983142     0.302640  Biso 1.000000     O
    O   1.0     0.193445     0.983138     0.802644  Biso 1.000000     O
    O   1.0     0.693459     0.483149     0.302640  Biso 1.000000     O
    O   1.0     0.693465     0.483145     0.802643  Biso 1.000000     O
    O   1.0     0.693457     0.983141     0.302640  Biso 1.000000     O
    O   1.0     0.693462     0.983138     0.802643  Biso 1.000000     O
    P   1.0     0.354668     0.089675     0.330588  Biso 1.000000     P
    P   1.0     0.354681     0.089675     0.830592  Biso 1.000000     P
    P   1.0     0.354671     0.589674     0.330588  Biso 1.000000     P
    P   1.0     0.354674     0.589665     0.830592  Biso 1.000000     P
    P   1.0     0.854679     0.089676     0.330587  Biso 1.000000     P
    P   1.0     0.854692     0.089675     0.830591  Biso 1.000000     P
    P   1.0     0.854682     0.589675     0.330587  Biso 1.000000     P
    P   1.0     0.854686     0.589665     0.830591  Biso 1.000000     P
    P   1.0     0.339650     0.074757     0.157345  Biso 1.000000     P
    P   1.0     0.339656     0.074753     0.657347  Biso 1.000000     P
    P   1.0     0.339648     0.574750     0.157344  Biso 1.000000     P
    P   1.0     0.339653     0.574746     0.657347  Biso 1.000000     P
    P   1.0     0.839667     0.074757     0.157345  Biso 1.000000     P
    P   1.0     0.839673     0.074753     0.657346  Biso 1.000000     P
    P   1.0     0.839664     0.574750     0.157344  Biso 1.000000     P
    P   1.0     0.839670     0.574745     0.657346  Biso 1.000000     P
    P   1.0     0.145244     0.410325     0.169407  Biso 1.000000     P
    P   1.0     0.145256     0.410324     0.669412  Biso 1.000000     P
    P   1.0     0.145246     0.910324     0.169407  Biso 1.000000     P
    P   1.0     0.145251     0.910314     0.669412  Biso 1.000000     P
    P   1.0     0.645255     0.410326     0.169406  Biso 1.000000     P
    P   1.0     0.645268     0.410325     0.669410  Biso 1.000000     P
    P   1.0     0.645258     0.910325     0.169406  Biso 1.000000     P
    P   1.0     0.645262     0.910315     0.669410  Biso 1.000000     P
    P   1.0     0.160322     0.425232     0.342663  Biso 1.000000     P
    P   1.0     0.160328     0.425228     0.842664  Biso 1.000000     P
    P   1.0     0.160320     0.925225     0.342662  Biso 1.000000     P
    P   1.0     0.160325     0.925220     0.842664  Biso 1.000000     P
    P   1.0     0.660339     0.425232     0.342663  Biso 1.000000     P
    P   1.0     0.660345     0.425228     0.842664  Biso 1.000000     P
    P   1.0     0.660336     0.925225     0.342662  Biso 1.000000     P
    P   1.0     0.660342     0.925220     0.842664  Biso 1.000000     P
   La   1.0     0.110650     0.071285     0.235519  Biso 1.000000    La
   La   1.0     0.110650     0.071287     0.735523  Biso 1.000000    La
   La   1.0     0.110640     0.571285     0.235521  Biso 1.000000    La
   La   1.0     0.110654     0.571276     0.735522  Biso 1.000000    La
   La   1.0     0.610669     0.071286     0.235519  Biso 1.000000    La
   La   1.0     0.610669     0.071288     0.735524  Biso 1.000000    La
   La   1.0     0.610658     0.571286     0.235521  Biso 1.000000    La
   La   1.0     0.610673     0.571277     0.735522  Biso 1.000000    La
   La   1.0     0.389314     0.428699     0.264482  Biso 1.000000    La
   La   1.0     0.389314     0.428701     0.764487  Biso 1.000000    La
   La   1.0     0.389303     0.928699     0.264484  Biso 1.000000    La
   La   1.0     0.389318     0.928689     0.764485  Biso 1.000000    La
   La   1.0     0.889333     0.428700     0.264482  Biso 1.000000    La
   La   1.0     0.889333     0.428702     0.764486  Biso 1.000000    La
   La   1.0     0.889322     0.928700     0.264484  Biso 1.000000    La
   La   1.0     0.889337     0.928690     0.764485  Biso 1.000000    La
