#======================================================================

# CRYSTAL DATA

#----------------------------------------------------------------------

data_VESTA_phase_1


_pd_phase_name                         MOF
_cell_length_a                         17.31500
_cell_length_b                         19.30000
_cell_length_c                         22.36800
_cell_angle_alpha                      90.00000
_cell_angle_beta                       90.00200
_cell_angle_gamma                      94.96900
_symmetry_space_group_name_H-M         "P 1"
_symmetry_Int_Tables_number            1

loop_
_symmetry_equiv_pos_as_xyz
   "x, y, z"

loop_
   _atom_site_label
   _atom_site_occupancy
   _atom_site_fract_x
   _atom_site_fract_y
   _atom_site_fract_z
   _atom_site_adp_type
   _atom_site_B_iso_or_equiv
   _atom_site_type_symbol
    H   1.0     0.025776     0.156365     0.448199  Biso 1.000000     H
    H   1.0     0.525775     0.156367     0.448199  Biso 1.000000     H
    H   1.0     0.498402     0.247946     0.372456  Biso 1.000000     H
    H   1.0     0.998403     0.247942     0.372456  Biso 1.000000     H
    H   1.0     0.255170     0.144150     0.375426  Biso 1.000000     H
    H   1.0     0.755170     0.144155     0.375427  Biso 1.000000     H
    H   1.0     0.203935     0.505729     0.151405  Biso 1.000000     H
    H   1.0     0.703937     0.505733     0.151404  Biso 1.000000     H
    H   1.0     0.147846     0.430496     0.234514  Biso 1.000000     H
    H   1.0     0.647847     0.430501     0.234513  Biso 1.000000     H
    H   1.0     0.297775     0.274816     0.177328  Biso 1.000000     H
    H   1.0     0.797775     0.274820     0.177328  Biso 1.000000     H
    H   1.0     0.347173     0.356191     0.098112  Biso 1.000000     H
    H   1.0     0.847173     0.356194     0.098112  Biso 1.000000     H
    H   1.0     0.067941     0.028489     0.311397  Biso 1.000000     H
    H   1.0     0.567945     0.028494     0.311402  Biso 1.000000     H
    H   1.0     0.156607     0.079668     0.229346  Biso 1.000000     H
    H   1.0     0.656611     0.079670     0.229349  Biso 1.000000     H
    H   1.0     0.393720     0.164662     0.264554  Biso 1.000000     H
    H   1.0     0.893720     0.164664     0.264555  Biso 1.000000     H
    H   1.0     0.178406     0.329676     0.964771  Biso 1.000000     H
    H   1.0     0.678411     0.329678     0.964773  Biso 1.000000     H
    H   1.0     0.148488     0.232268     0.036404  Biso 1.000000     H
    H   1.0     0.648492     0.232268     0.036405  Biso 1.000000     H
    H   1.0     0.008893     0.368635     0.135281  Biso 1.000000     H
    H   1.0     0.508892     0.368633     0.135280  Biso 1.000000     H
    H   1.0     0.043294     0.459295     0.059764  Biso 1.000000     H
    H   1.0     0.543293     0.459294     0.059764  Biso 1.000000     H
    H   1.0     0.474262     0.343642     0.948180  Biso 1.000000     H
    H   1.0     0.974260     0.343641     0.948182  Biso 1.000000     H
    H   1.0     0.001633     0.252065     0.872438  Biso 1.000000     H
    H   1.0     0.501633     0.252064     0.872437  Biso 1.000000     H
    H   1.0     0.244851     0.355831     0.875418  Biso 1.000000     H
    H   1.0     0.744850     0.355829     0.875420  Biso 1.000000     H
    H   1.0     0.296038     0.994204     0.651430  Biso 1.000000     H
    H   1.0     0.796043     0.994206     0.651428  Biso 1.000000     H
    H   1.0     0.352138     0.069467     0.734540  Biso 1.000000     H
    H   1.0     0.852143     0.069469     0.734537  Biso 1.000000     H
    H   1.0     0.202273     0.225176     0.677300  Biso 1.000000     H
    H   1.0     0.702271     0.225174     0.677302  Biso 1.000000     H
    H   1.0     0.152869     0.143795     0.598085  Biso 1.000000     H
    H   1.0     0.652867     0.143794     0.598087  Biso 1.000000     H
    H   1.0     0.432096     0.471523     0.811359  Biso 1.000000     H
    H   1.0     0.932091     0.471519     0.811364  Biso 1.000000     H
    H   1.0     0.343431     0.420347     0.729299  Biso 1.000000     H
    H   1.0     0.843428     0.420345     0.729303  Biso 1.000000     H
    H   1.0     0.106293     0.335314     0.764556  Biso 1.000000     H
    H   1.0     0.606294     0.335311     0.764557  Biso 1.000000     H
    H   1.0     0.321663     0.170324     0.464735  Biso 1.000000     H
    H   1.0     0.821663     0.170325     0.464736  Biso 1.000000     H
    H   1.0     0.351573     0.267732     0.536365  Biso 1.000000     H
    H   1.0     0.851572     0.267733     0.536365  Biso 1.000000     H
    H   1.0     0.491079     0.131331     0.635294  Biso 1.000000     H
    H   1.0     0.991084     0.131336     0.635293  Biso 1.000000     H
    H   1.0     0.456680     0.040672     0.559773  Biso 1.000000     H
    H   1.0     0.956684     0.040676     0.559772  Biso 1.000000     H
    H   1.0     0.474234     0.843597     0.551797  Biso 1.000000     H
    H   1.0     0.974234     0.843597     0.551796  Biso 1.000000     H
    H   1.0     0.001606     0.752018     0.627538  Biso 1.000000     H
    H   1.0     0.501606     0.752017     0.627538  Biso 1.000000     H
    H   1.0     0.244841     0.855812     0.624570  Biso 1.000000     H
    H   1.0     0.744840     0.855812     0.624569  Biso 1.000000     H
    H   1.0     0.296065     0.494232     0.848591  Biso 1.000000     H
    H   1.0     0.796063     0.494232     0.848590  Biso 1.000000     H
    H   1.0     0.352154     0.569462     0.765480  Biso 1.000000     H
    H   1.0     0.852154     0.569462     0.765480  Biso 1.000000     H
    H   1.0     0.202239     0.725150     0.822670  Biso 1.000000     H
    H   1.0     0.702240     0.725151     0.822670  Biso 1.000000     H
    H   1.0     0.152840     0.643778     0.901887  Biso 1.000000     H
    H   1.0     0.652840     0.643778     0.901887  Biso 1.000000     H
    H   1.0     0.432065     0.971481     0.688599  Biso 1.000000     H
    H   1.0     0.932064     0.971480     0.688597  Biso 1.000000     H
    H   1.0     0.343400     0.920305     0.770653  Biso 1.000000     H
    H   1.0     0.843400     0.920305     0.770653  Biso 1.000000     H
    H   1.0     0.106283     0.835303     0.735437  Biso 1.000000     H
    H   1.0     0.606284     0.835301     0.735437  Biso 1.000000     H
    H   1.0     0.321606     0.670294     0.035228  Biso 1.000000     H
    H   1.0     0.821607     0.670296     0.035228  Biso 1.000000     H
    H   1.0     0.351524     0.767702     0.963595  Biso 1.000000     H
    H   1.0     0.851526     0.767705     0.963595  Biso 1.000000     H
    H   1.0     0.491106     0.631330     0.864712  Biso 1.000000     H
    H   1.0     0.991107     0.631332     0.864711  Biso 1.000000     H
    H   1.0     0.456705     0.540671     0.940229  Biso 1.000000     H
    H   1.0     0.956706     0.540673     0.940228  Biso 1.000000     H
    H   1.0     0.025744     0.656316     0.051816  Biso 1.000000     H
    H   1.0     0.525744     0.656324     0.051814  Biso 1.000000     H
    H   1.0     0.498370     0.747898     0.127559  Biso 1.000000     H
    H   1.0     0.998369     0.747887     0.127564  Biso 1.000000     H
    H   1.0     0.255157     0.644131     0.124575  Biso 1.000000     H
    H   1.0     0.755155     0.644137     0.124575  Biso 1.000000     H
    H   1.0     0.203974     0.005760     0.348556  Biso 1.000000     H
    H   1.0     0.703975     0.005766     0.348558  Biso 1.000000     H
    H   1.0     0.147872     0.930494     0.265449  Biso 1.000000     H
    H   1.0     0.647872     0.930501     0.265451  Biso 1.000000     H
    H   1.0     0.297717     0.774777     0.322705  Biso 1.000000     H
    H   1.0     0.797721     0.774785     0.322701  Biso 1.000000     H
    H   1.0     0.347124     0.856161     0.401917  Biso 1.000000     H
    H   1.0     0.847128     0.856167     0.401914  Biso 1.000000     H
    H   1.0     0.067902     0.528436     0.188641  Biso 1.000000     H
    H   1.0     0.567914     0.528451     0.188628  Biso 1.000000     H
    H   1.0     0.156566     0.579611     0.270701  Biso 1.000000     H
    H   1.0     0.656573     0.579618     0.270695  Biso 1.000000     H
    H   1.0     0.393710     0.664654     0.235438  Biso 1.000000     H
    H   1.0     0.893707     0.664652     0.235441  Biso 1.000000     H
    H   1.0     0.178321     0.829633     0.535270  Biso 1.000000     H
    H   1.0     0.678337     0.829639     0.535262  Biso 1.000000     H
    H   1.0     0.148412     0.732224     0.463641  Biso 1.000000     H
    H   1.0     0.648427     0.732230     0.463633  Biso 1.000000     H
    H   1.0     0.008928     0.868631     0.364698  Biso 1.000000     H
    H   1.0     0.508923     0.868630     0.364702  Biso 1.000000     H
    H   1.0     0.043326     0.959291     0.440220  Biso 1.000000     H
    H   1.0     0.543323     0.959290     0.440222  Biso 1.000000     H
    C   1.0     0.154047     0.089715     0.462112  Biso 1.000000     C
    C   1.0     0.654049     0.089719     0.462112  Biso 1.000000     C
    C   1.0     0.141206     0.145754     0.417077  Biso 1.000000     C
    C   1.0     0.641207     0.145759     0.417078  Biso 1.000000     C
    C   1.0     0.069745     0.175374     0.416012  Biso 1.000000     C
    C   1.0     0.569745     0.175378     0.416013  Biso 1.000000     C
    C   1.0     0.054510     0.226473     0.374278  Biso 1.000000     C
    C   1.0     0.554510     0.226476     0.374278  Biso 1.000000     C
    C   1.0     0.113561     0.248354     0.334678  Biso 1.000000     C
    C   1.0     0.613561     0.248358     0.334678  Biso 1.000000     C
    C   1.0     0.185040     0.219747     0.336254  Biso 1.000000     C
    C   1.0     0.685040     0.219752     0.336254  Biso 1.000000     C
    C   1.0     0.200144     0.167678     0.376302  Biso 1.000000     C
    C   1.0     0.700144     0.167683     0.376303  Biso 1.000000     C
    C   1.0     0.236251     0.253493     0.289906  Biso 1.000000     C
    C   1.0     0.736251     0.253496     0.289906  Biso 1.000000     C
    C   1.0     0.114875     0.300306     0.285757  Biso 1.000000     C
    C   1.0     0.614876     0.300312     0.285758  Biso 1.000000     C
    C   1.0     0.222759     0.454053     0.159126  Biso 1.000000     C
    C   1.0     0.722760     0.454056     0.159125  Biso 1.000000     C
    C   1.0     0.191992     0.412298     0.205358  Biso 1.000000     C
    C   1.0     0.691992     0.412302     0.205358  Biso 1.000000     C
    C   1.0     0.218743     0.346276     0.213050  Biso 1.000000     C
    C   1.0     0.718743     0.346280     0.213050  Biso 1.000000     C
    C   1.0     0.274764     0.325054     0.173521  Biso 1.000000     C
    C   1.0     0.774764     0.325058     0.173521  Biso 1.000000     C
    C   1.0     0.302627     0.370671     0.128986  Biso 1.000000     C
    C   1.0     0.802628     0.370675     0.128986  Biso 1.000000     C
    C   1.0     0.429757     0.064875     0.344965  Biso 1.000000     C
    C   1.0     0.929759     0.064878     0.344965  Biso 1.000000     C
    C   1.0     0.477059     0.093204     0.292199  Biso 1.000000     C
    C   1.0     0.977058     0.093204     0.292198  Biso 1.000000     C
    C   1.0     0.050243     0.069074     0.281872  Biso 1.000000     C
    C   1.0     0.550245     0.069076     0.281875  Biso 1.000000     C
    C   1.0     0.099133     0.097087     0.236661  Biso 1.000000     C
    C   1.0     0.599137     0.097090     0.236665  Biso 1.000000     C
    C   1.0     0.072203     0.149465     0.201667  Biso 1.000000     C
    C   1.0     0.572206     0.149466     0.201669  Biso 1.000000     C
    C   1.0     0.498578     0.172484     0.210615  Biso 1.000000     C
    C   1.0     0.998578     0.172484     0.210614  Biso 1.000000     C
    C   1.0     0.449842     0.145283     0.255769  Biso 1.000000     C
    C   1.0     0.949842     0.145284     0.255770  Biso 1.000000     C
    C   1.0     0.112118     0.190532     0.153157  Biso 1.000000     C
    C   1.0     0.612118     0.190530     0.153156  Biso 1.000000     C
    C   1.0     0.487278     0.228342     0.166772  Biso 1.000000     C
    C   1.0     0.987277     0.228341     0.166770  Biso 1.000000     C
    C   1.0     0.140899     0.335900     0.000000  Biso 1.000000     C
    C   1.0     0.640903     0.335900     0.000000  Biso 1.000000     C
    C   1.0     0.123881     0.281593     0.042859  Biso 1.000000     C
    C   1.0     0.623884     0.281593     0.042859  Biso 1.000000     C
    C   1.0     0.075906     0.292430     0.091932  Biso 1.000000     C
    C   1.0     0.575907     0.292429     0.091932  Biso 1.000000     C
    C   1.0     0.046070     0.357268     0.098071  Biso 1.000000     C
    C   1.0     0.546070     0.357267     0.098071  Biso 1.000000     C
    C   1.0     0.065816     0.408536     0.055765  Biso 1.000000     C
    C   1.0     0.565817     0.408535     0.055765  Biso 1.000000     C
    C   1.0     0.345973     0.410265     0.962106  Biso 1.000000     C
    C   1.0     0.845972     0.410265     0.962107  Biso 1.000000     C
    C   1.0     0.358821     0.354235     0.917066  Biso 1.000000     C
    C   1.0     0.858820     0.354235     0.917067  Biso 1.000000     C
    C   1.0     0.430288     0.324625     0.915997  Biso 1.000000     C
    C   1.0     0.930287     0.324625     0.915999  Biso 1.000000     C
    C   1.0     0.445524     0.273531     0.874260  Biso 1.000000     C
    C   1.0     0.945523     0.273530     0.874262  Biso 1.000000     C
    C   1.0     0.386468     0.251642     0.834663  Biso 1.000000     C
    C   1.0     0.886468     0.251641     0.834665  Biso 1.000000     C
    C   1.0     0.314984     0.280241     0.836241  Biso 1.000000     C
    C   1.0     0.814984     0.280240     0.836243  Biso 1.000000     C
    C   1.0     0.299879     0.332306     0.876292  Biso 1.000000     C
    C   1.0     0.799879     0.332306     0.876293  Biso 1.000000     C
    C   1.0     0.263770     0.246492     0.789896  Biso 1.000000     C
    C   1.0     0.763769     0.246489     0.789898  Biso 1.000000     C
    C   1.0     0.385145     0.199677     0.785752  Biso 1.000000     C
    C   1.0     0.885147     0.199679     0.785751  Biso 1.000000     C
    C   1.0     0.277238     0.045914     0.659139  Biso 1.000000     C
    C   1.0     0.777241     0.045915     0.659138  Biso 1.000000     C
    C   1.0     0.308007     0.087671     0.705371  Biso 1.000000     C
    C   1.0     0.808010     0.087672     0.705370  Biso 1.000000     C
    C   1.0     0.281273     0.153702     0.713046  Biso 1.000000     C
    C   1.0     0.781275     0.153702     0.713047  Biso 1.000000     C
    C   1.0     0.225268     0.174930     0.673504  Biso 1.000000     C
    C   1.0     0.725268     0.174929     0.673506  Biso 1.000000     C
    C   1.0     0.197403     0.129311     0.628969  Biso 1.000000     C
    C   1.0     0.697403     0.129310     0.628971  Biso 1.000000     C
    C   1.0     0.070259     0.435114     0.844954  Biso 1.000000     C
    C   1.0     0.570259     0.435112     0.844954  Biso 1.000000     C
    C   1.0     0.022964     0.406789     0.792182  Biso 1.000000     C
    C   1.0     0.522966     0.406789     0.792181  Biso 1.000000     C
    C   1.0     0.449789     0.430931     0.781841  Biso 1.000000     C
    C   1.0     0.949787     0.430930     0.781844  Biso 1.000000     C
    C   1.0     0.400897     0.402915     0.736629  Biso 1.000000     C
    C   1.0     0.900894     0.402912     0.736633  Biso 1.000000     C
    C   1.0     0.427820     0.350525     0.701647  Biso 1.000000     C
    C   1.0     0.927819     0.350525     0.701649  Biso 1.000000     C
    C   1.0     0.001441     0.327500     0.710604  Biso 1.000000     C
    C   1.0     0.501442     0.327498     0.710604  Biso 1.000000     C
    C   1.0     0.050177     0.354702     0.755761  Biso 1.000000     C
    C   1.0     0.550178     0.354699     0.755761  Biso 1.000000     C
    C   1.0     0.387901     0.309456     0.653139  Biso 1.000000     C
    C   1.0     0.887903     0.309459     0.653137  Biso 1.000000     C
    C   1.0     0.012734     0.271633     0.666768  Biso 1.000000     C
    C   1.0     0.512736     0.271633     0.666766  Biso 1.000000     C
    C   1.0     0.359147     0.164092     0.503078  Biso 1.000000     C
    C   1.0     0.859148     0.164094     0.503078  Biso 1.000000     C
    C   1.0     0.376157     0.218398     0.542832  Biso 1.000000     C
    C   1.0     0.876157     0.218400     0.542832  Biso 1.000000     C
    C   1.0     0.424107     0.207550     0.591921  Biso 1.000000     C
    C   1.0     0.924108     0.207553     0.591920  Biso 1.000000     C
    C   1.0     0.453920     0.142705     0.598073  Biso 1.000000     C
    C   1.0     0.953923     0.142708     0.598072  Biso 1.000000     C
    C   1.0     0.434174     0.091438     0.555765  Biso 1.000000     C
    C   1.0     0.934178     0.091441     0.555765  Biso 1.000000     C
    C   1.0     0.345957     0.910244     0.537883  Biso 1.000000     C
    C   1.0     0.845958     0.910245     0.537883  Biso 1.000000     C
    C   1.0     0.358802     0.854206     0.582917  Biso 1.000000     C
    C   1.0     0.858803     0.854207     0.582917  Biso 1.000000     C
    C   1.0     0.430264     0.824587     0.583982  Biso 1.000000     C
    C   1.0     0.930265     0.824587     0.583982  Biso 1.000000     C
    C   1.0     0.445499     0.773488     0.625717  Biso 1.000000     C
    C   1.0     0.945499     0.773488     0.625716  Biso 1.000000     C
    C   1.0     0.386449     0.751606     0.665317  Biso 1.000000     C
    C   1.0     0.886449     0.751606     0.665317  Biso 1.000000     C
    C   1.0     0.314970     0.780214     0.663742  Biso 1.000000     C
    C   1.0     0.814970     0.780214     0.663742  Biso 1.000000     C
    C   1.0     0.299866     0.832282     0.623693  Biso 1.000000     C
    C   1.0     0.799866     0.832283     0.623693  Biso 1.000000     C
    C   1.0     0.263759     0.746471     0.710090  Biso 1.000000     C
    C   1.0     0.763758     0.746470     0.710089  Biso 1.000000     C
    C   1.0     0.385131     0.699648     0.714235  Biso 1.000000     C
    C   1.0     0.885132     0.699650     0.714236  Biso 1.000000     C
    C   1.0     0.277244     0.545910     0.840870  Biso 1.000000     C
    C   1.0     0.777244     0.545909     0.840870  Biso 1.000000     C
    C   1.0     0.308012     0.587663     0.794637  Biso 1.000000     C
    C   1.0     0.808012     0.587663     0.794636  Biso 1.000000     C
    C   1.0     0.281264     0.653686     0.786946  Biso 1.000000     C
    C   1.0     0.781265     0.653686     0.786946  Biso 1.000000     C
    C   1.0     0.225247     0.674911     0.826476  Biso 1.000000     C
    C   1.0     0.725248     0.674911     0.826476  Biso 1.000000     C
    C   1.0     0.197383     0.629296     0.871012  Biso 1.000000     C
    C   1.0     0.697383     0.629296     0.871012  Biso 1.000000     C
    C   1.0     0.070247     0.935095     0.655031  Biso 1.000000     C
    C   1.0     0.570247     0.935095     0.655031  Biso 1.000000     C
    C   1.0     0.022946     0.906766     0.707797  Biso 1.000000     C
    C   1.0     0.522947     0.906765     0.707797  Biso 1.000000     C
    C   1.0     0.449763     0.930896     0.718124  Biso 1.000000     C
    C   1.0     0.949763     0.930897     0.718124  Biso 1.000000     C
    C   1.0     0.400872     0.902881     0.763334  Biso 1.000000     C
    C   1.0     0.900871     0.902881     0.763333  Biso 1.000000     C
    C   1.0     0.427801     0.850502     0.798327  Biso 1.000000     C
    C   1.0     0.927801     0.850503     0.798326  Biso 1.000000     C
    C   1.0     0.001426     0.827483     0.789378  Biso 1.000000     C
    C   1.0     0.501427     0.827481     0.789378  Biso 1.000000     C
    C   1.0     0.050162     0.854684     0.744224  Biso 1.000000     C
    C   1.0     0.550163     0.854683     0.744224  Biso 1.000000     C
    C   1.0     0.387889     0.809439     0.846840  Biso 1.000000     C
    C   1.0     0.887890     0.809441     0.846841  Biso 1.000000     C
    C   1.0     0.012725     0.771623     0.833220  Biso 1.000000     C
    C   1.0     0.512726     0.771622     0.833221  Biso 1.000000     C
    C   1.0     0.359108     0.664069    -0.003103  Biso 1.000000     C
    C   1.0     0.859110     0.664071    -0.003103  Biso 1.000000     C
    C   1.0     0.376127     0.718376     0.957138  Biso 1.000000     C
    C   1.0     0.876129     0.718378     0.957139  Biso 1.000000     C
    C   1.0     0.424099     0.707537     0.908063  Biso 1.000000     C
    C   1.0     0.924100     0.707539     0.908063  Biso 1.000000     C
    C   1.0     0.453931     0.642698     0.901923  Biso 1.000000     C
    C   1.0     0.953932     0.642700     0.901922  Biso 1.000000     C
    C   1.0     0.434185     0.591430     0.944229  Biso 1.000000     C
    C   1.0     0.934186     0.591432     0.944228  Biso 1.000000     C
    C   1.0     0.154031     0.589696     0.037888  Biso 1.000000     C
    C   1.0     0.654032     0.589701     0.037887  Biso 1.000000     C
    C   1.0     0.141184     0.645723     0.082930  Biso 1.000000     C
    C   1.0     0.641185     0.645731     0.082928  Biso 1.000000     C
    C   1.0     0.069716     0.675331     0.084001  Biso 1.000000     C
    C   1.0     0.569718     0.675340     0.083997  Biso 1.000000     C
    C   1.0     0.054480     0.726425     0.125738  Biso 1.000000     C
    C   1.0     0.554481     0.726434     0.125735  Biso 1.000000     C
    C   1.0     0.113536     0.748313     0.165334  Biso 1.000000     C
    C   1.0     0.613537     0.748323     0.165331  Biso 1.000000     C
    C   1.0     0.185020     0.719716     0.163755  Biso 1.000000     C
    C   1.0     0.685021     0.719724     0.163753  Biso 1.000000     C
    C   1.0     0.200126     0.667652     0.123704  Biso 1.000000     C
    C   1.0     0.700126     0.667660     0.123701  Biso 1.000000     C
    C   1.0     0.236236     0.753470     0.210098  Biso 1.000000     C
    C   1.0     0.736235     0.753475     0.210098  Biso 1.000000     C
    C   1.0     0.114855     0.800273     0.214249  Biso 1.000000     C
    C   1.0     0.614857     0.800285     0.214245  Biso 1.000000     C
    C   1.0     0.222769     0.954048     0.340852  Biso 1.000000     C
    C   1.0     0.722770     0.954054     0.340853  Biso 1.000000     C
    C   1.0     0.191999     0.912288     0.294621  Biso 1.000000     C
    C   1.0     0.692000     0.912296     0.294621  Biso 1.000000     C
    C   1.0     0.218727     0.846255     0.286951  Biso 1.000000     C
    C   1.0     0.718729     0.846263     0.286949  Biso 1.000000     C
    C   1.0     0.274727     0.825025     0.326497  Biso 1.000000     C
    C   1.0     0.774730     0.825033     0.326494  Biso 1.000000     C
    C   1.0     0.302594     0.870646     0.371030  Biso 1.000000     C
    C   1.0     0.802597     0.870652     0.371027  Biso 1.000000     C
    C   1.0     0.429741     0.564852     0.155042  Biso 1.000000     C
    C   1.0     0.929744     0.564856     0.155040  Biso 1.000000     C
    C   1.0     0.477038     0.593177     0.207814  Biso 1.000000     C
    C   1.0     0.977035     0.593174     0.207817  Biso 1.000000     C
    C   1.0     0.050209     0.569029     0.218158  Biso 1.000000     C
    C   1.0     0.550216     0.569036     0.218152  Biso 1.000000     C
    C   1.0     0.099099     0.597043     0.263372  Biso 1.000000     C
    C   1.0     0.599110     0.597057     0.263360  Biso 1.000000     C
    C   1.0     0.072177     0.649434     0.298353  Biso 1.000000     C
    C   1.0     0.572185     0.649442     0.298346  Biso 1.000000     C
    C   1.0     0.498561     0.672467     0.289391  Biso 1.000000     C
    C   1.0     0.998557     0.672462     0.289396  Biso 1.000000     C
    C   1.0     0.449825     0.645264     0.244235  Biso 1.000000     C
    C   1.0     0.949823     0.645262     0.244237  Biso 1.000000     C
    C   1.0     0.112098     0.690507     0.346858  Biso 1.000000     C
    C   1.0     0.612097     0.690503     0.346863  Biso 1.000000     C
    C   1.0     0.487270     0.728338     0.333224  Biso 1.000000     C
    C   1.0     0.987263     0.728328     0.333233  Biso 1.000000     C
    C   1.0     0.140842     0.835866     0.496924  Biso 1.000000     C
    C   1.0     0.640853     0.835870     0.496919  Biso 1.000000     C
    C   1.0     0.123833     0.781560     0.457171  Biso 1.000000     C
    C   1.0     0.623844     0.781564     0.457166  Biso 1.000000     C
    C   1.0     0.075891     0.792410     0.408078  Biso 1.000000     C
    C   1.0     0.575894     0.792411     0.408077  Biso 1.000000     C
    C   1.0     0.046083     0.857257     0.401922  Biso 1.000000     C
    C   1.0     0.546082     0.857257     0.401923  Biso 1.000000     C
    C   1.0     0.065827     0.908524     0.444230  Biso 1.000000     C
    C   1.0     0.565828     0.908525     0.444231  Biso 1.000000     C
    N   1.0     0.277409     0.434209     0.121404  Biso 1.000000     N
    N   1.0     0.777410     0.434212     0.121404  Biso 1.000000     N
    N   1.0     0.190761     0.301941     0.260037  Biso 1.000000     N
    N   1.0     0.690762     0.301946     0.260037  Biso 1.000000     N
    N   1.0     0.059292     0.239430     0.134703  Biso 1.000000     N
    N   1.0     0.559293     0.239429     0.134702  Biso 1.000000     N
    N   1.0     0.113038     0.398690     0.009131  Biso 1.000000     N
    N   1.0     0.613040     0.398690     0.009132  Biso 1.000000     N
    N   1.0     0.222604     0.065765     0.621403  Biso 1.000000     N
    N   1.0     0.722605     0.065765     0.621403  Biso 1.000000     N
    N   1.0     0.309257     0.198040     0.760032  Biso 1.000000     N
    N   1.0     0.809258     0.198040     0.760032  Biso 1.000000     N
    N   1.0     0.440721     0.260551     0.634692  Biso 1.000000     N
    N   1.0     0.940722     0.260554     0.634691  Biso 1.000000     N
    N   1.0     0.386973     0.101292     0.509117  Biso 1.000000     N
    N   1.0     0.886976     0.101295     0.509117  Biso 1.000000     N
    N   1.0     0.222597     0.565757     0.878593  Biso 1.000000     N
    N   1.0     0.722597     0.565757     0.878593  Biso 1.000000     N
    N   1.0     0.309246     0.698019     0.739957  Biso 1.000000     N
    N   1.0     0.809246     0.698020     0.739957  Biso 1.000000     N
    N   1.0     0.440712     0.760537     0.865292  Biso 1.000000     N
    N   1.0     0.940713     0.760539     0.865292  Biso 1.000000     N
    N   1.0     0.386965     0.601278     0.990864  Biso 1.000000     N
    N   1.0     0.886967     0.601279     0.990864  Biso 1.000000     N
    N   1.0     0.277399     0.934196     0.378591  Biso 1.000000     N
    N   1.0     0.777401     0.934201     0.378590  Biso 1.000000     N
    N   1.0     0.190744     0.801915     0.239966  Biso 1.000000     N
    N   1.0     0.690746     0.801924     0.239964  Biso 1.000000     N
    N   1.0     0.059277     0.739409     0.365307  Biso 1.000000     N
    N   1.0     0.559280     0.739411     0.365306  Biso 1.000000     N
    N   1.0     0.113022     0.898667     0.490882  Biso 1.000000     N
    N   1.0     0.613028     0.898670     0.490879  Biso 1.000000     N
    O   1.0     0.214346     0.056946     0.457884  Biso 1.000000     O
    O   1.0     0.714351     0.056955     0.457885  Biso 1.000000     O
    O   1.0     0.102861     0.077789     0.502595  Biso 1.000000     O
    O   1.0     0.602862     0.077790     0.502594  Biso 1.000000     O
    O   1.0     0.063157     0.334403     0.268415  Biso 1.000000     O
    O   1.0     0.563158     0.334408     0.268416  Biso 1.000000     O
    O   1.0     0.303484     0.244906     0.278665  Biso 1.000000     O
    O   1.0     0.803484     0.244911     0.278666  Biso 1.000000     O
    O   1.0     0.366826     0.091582     0.356942  Biso 1.000000     O
    O   1.0     0.866825     0.091581     0.356940  Biso 1.000000     O
    O   1.0     0.456300     0.016575     0.375506  Biso 1.000000     O
    O   1.0     0.956300     0.016575     0.375504  Biso 1.000000     O
    O   1.0     0.430070     0.258652     0.156398  Biso 1.000000     O
    O   1.0     0.930072     0.258657     0.156401  Biso 1.000000     O
    O   1.0     0.176853     0.186087     0.132790  Biso 1.000000     O
    O   1.0     0.676856     0.186089     0.132792  Biso 1.000000     O
    O   1.0     0.285660     0.443018     0.957885  Biso 1.000000     O
    O   1.0     0.785661     0.443019     0.957884  Biso 1.000000     O
    O   1.0     0.397151     0.422199     0.002595  Biso 1.000000     O
    O   1.0     0.897151     0.422199     0.002596  Biso 1.000000     O
    O   1.0     0.436860     0.165580     0.768409  Biso 1.000000     O
    O   1.0     0.936862     0.165580     0.768410  Biso 1.000000     O
    O   1.0     0.196530     0.255065     0.778663  Biso 1.000000     O
    O   1.0     0.696531     0.255065     0.778662  Biso 1.000000     O
    O   1.0     0.133184     0.408401     0.856941  Biso 1.000000     O
    O   1.0     0.633187     0.408402     0.856940  Biso 1.000000     O
    O   1.0     0.043709     0.483407     0.875498  Biso 1.000000     O
    O   1.0     0.543711     0.483408     0.875496  Biso 1.000000     O
    O   1.0     0.069942     0.241326     0.656393  Biso 1.000000     O
    O   1.0     0.569941     0.241319     0.656396  Biso 1.000000     O
    O   1.0     0.323157     0.313892     0.632782  Biso 1.000000     O
    O   1.0     0.823155     0.313890     0.632784  Biso 1.000000     O
    O   1.0     0.285648     0.942999     0.542107  Biso 1.000000     O
    O   1.0     0.785651     0.943003     0.542108  Biso 1.000000     O
    O   1.0     0.397145     0.922179     0.497402  Biso 1.000000     O
    O   1.0     0.897146     0.922179     0.497402  Biso 1.000000     O
    O   1.0     0.436845     0.665547     0.731576  Biso 1.000000     O
    O   1.0     0.936846     0.665547     0.731575  Biso 1.000000     O
    O   1.0     0.196524     0.755056     0.721328  Biso 1.000000     O
    O   1.0     0.696525     0.755057     0.721329  Biso 1.000000     O
    O   1.0     0.133177     0.908387     0.643052  Biso 1.000000     O
    O   1.0     0.633178     0.908387     0.643052  Biso 1.000000     O
    O   1.0     0.043701     0.983394     0.624490  Biso 1.000000     O
    O   1.0     0.543702     0.983394     0.624490  Biso 1.000000     O
    O   1.0     0.069935     0.741316     0.843596  Biso 1.000000     O
    O   1.0     0.569935     0.741313     0.843595  Biso 1.000000     O
    O   1.0     0.323150     0.813881     0.867203  Biso 1.000000     O
    O   1.0     0.823150     0.813881     0.867202  Biso 1.000000     O
    O   1.0     0.214338     0.556936     0.042110  Biso 1.000000     O
    O   1.0     0.714342     0.556945     0.042110  Biso 1.000000     O
    O   1.0     0.102855     0.577772     0.997396  Biso 1.000000     O
    O   1.0     0.602855     0.577772     0.997397  Biso 1.000000     O
    O   1.0     0.063139     0.834370     0.231589  Biso 1.000000     O
    O   1.0     0.563141     0.834381     0.231587  Biso 1.000000     O
    O   1.0     0.303475     0.744897     0.221334  Biso 1.000000     O
    O   1.0     0.803475     0.744903     0.221332  Biso 1.000000     O
    O   1.0     0.366822     0.591574     0.143049  Biso 1.000000     O
    O   1.0     0.866817     0.591568     0.143055  Biso 1.000000     O
    O   1.0     0.456296     0.516566     0.124492  Biso 1.000000     O
    O   1.0     0.956292     0.516560     0.124498  Biso 1.000000     O
    O   1.0     0.430057     0.758636     0.343607  Biso 1.000000     O
    O   1.0     0.930061     0.758647     0.343598  Biso 1.000000     O
    O   1.0     0.176845     0.686076     0.367214  Biso 1.000000     O
    O   1.0     0.676852     0.686085     0.367206  Biso 1.000000     O
   Cd   1.0     0.344961     0.012070     0.443762  Biso 1.000000    Cd
   Cd   1.0     0.844963     0.012072     0.443763  Biso 1.000000    Cd
   Cd   1.0     0.155050     0.487905     0.943762  Biso 1.000000    Cd
   Cd   1.0     0.655049     0.487906     0.943762  Biso 1.000000    Cd
   Cd   1.0     0.155042     0.987892     0.556231  Biso 1.000000    Cd
   Cd   1.0     0.655043     0.987893     0.556231  Biso 1.000000    Cd
   Cd   1.0     0.344952     0.512061     0.056231  Biso 1.000000    Cd
   Cd   1.0     0.844954     0.512063     0.056232  Biso 1.000000    Cd
