#======================================================================

# CRYSTAL DATA

#----------------------------------------------------------------------

data_VESTA_phase_1


_pd_phase_name                         MOF
_cell_length_a                         21.51100
_cell_length_b                         12.44200
_cell_length_c                         26.09100
_cell_angle_alpha                      91.12600
_cell_angle_beta                       89.99800
_cell_angle_gamma                      89.98900
_symmetry_space_group_name_H-M         "P 1"
_symmetry_Int_Tables_number            1

loop_
_symmetry_equiv_pos_as_xyz
   "x, y, z"

loop_
   _atom_site_label
   _atom_site_occupancy
   _atom_site_fract_x
   _atom_site_fract_y
   _atom_site_fract_z
   _atom_site_adp_type
   _atom_site_B_iso_or_equiv
   _atom_site_type_symbol
    H   1.0     0.313312     0.983954     0.161898  Biso 1.000000     H
    H   1.0     0.812145     0.984292     0.161876  Biso 1.000000     H
    H   1.0     0.182543     0.956002     0.207386  Biso 1.000000     H
    H   1.0     0.681428     0.955783     0.207393  Biso 1.000000     H
    H   1.0     0.174589     0.864311     0.286302  Biso 1.000000     H
    H   1.0     0.673529     0.864127     0.286265  Biso 1.000000     H
    H   1.0     0.220000     0.780246     0.362630  Biso 1.000000     H
    H   1.0     0.718938     0.780176     0.362620  Biso 1.000000     H
    H   1.0     0.403123     0.865609     0.310069  Biso 1.000000     H
    H   1.0     0.902039     0.865926     0.310153  Biso 1.000000     H
    H   1.0     0.357832     0.948636     0.233772  Biso 1.000000     H
    H   1.0     0.856745     0.948817     0.233821  Biso 1.000000     H
    H   1.0     0.269098     0.694079     0.425544  Biso 1.000000     H
    H   1.0     0.768023     0.694157     0.425581  Biso 1.000000     H
    H   1.0     0.396442     0.770010     0.385864  Biso 1.000000     H
    H   1.0     0.895360     0.770284     0.385963  Biso 1.000000     H
    H   1.0     0.349367     0.182283     0.508133  Biso 1.000000     H
    H   1.0     0.848857     0.181743     0.507964  Biso 1.000000     H
    H   1.0     0.480927     0.270826     0.529851  Biso 1.000000     H
    H   1.0     0.980264     0.270778     0.529818  Biso 1.000000     H
    H   1.0     0.064621     0.156068     0.527304  Biso 1.000000     H
    H   1.0     0.565004     0.155539     0.527360  Biso 1.000000     H
    H   1.0     0.385805     0.021509     0.489422  Biso 1.000000     H
    H   1.0     0.885760     0.020573     0.489370  Biso 1.000000     H
    H   1.0     0.279627     0.767359     0.569837  Biso 1.000000     H
    H   1.0     0.779387     0.767645     0.570167  Biso 1.000000     H
    H   1.0     0.279481     0.961706     0.600815  Biso 1.000000     H
    H   1.0     0.779735     0.961934     0.601209  Biso 1.000000     H
    H   1.0     0.379342     0.044450     0.630184  Biso 1.000000     H
    H   1.0     0.879874     0.044027     0.630368  Biso 1.000000     H
    H   1.0     0.137894     0.723089     0.620101  Biso 1.000000     H
    H   1.0     0.638021     0.725009     0.620654  Biso 1.000000     H
    H   1.0     0.124165     0.537876     0.585324  Biso 1.000000     H
    H   1.0     0.624815     0.539722     0.585851  Biso 1.000000     H
    H   1.0     0.016948     0.473593     0.560964  Biso 1.000000     H
    H   1.0     0.517764     0.474732     0.561269  Biso 1.000000     H
    H   1.0     0.495440     0.022284     0.645871  Biso 1.000000     H
    H   1.0     0.995966     0.021135     0.645782  Biso 1.000000     H
    H   1.0     0.088933     0.904391     0.642867  Biso 1.000000     H
    H   1.0     0.588645     0.906098     0.643228  Biso 1.000000     H
    H   1.0     0.313184     0.515920     0.337948  Biso 1.000000     H
    H   1.0     0.812293     0.515665     0.338130  Biso 1.000000     H
    H   1.0     0.182310     0.544128     0.292683  Biso 1.000000     H
    H   1.0     0.681573     0.544376     0.292653  Biso 1.000000     H
    H   1.0     0.174261     0.636069     0.213771  Biso 1.000000     H
    H   1.0     0.673647     0.636378     0.213879  Biso 1.000000     H
    H   1.0     0.219620     0.720013     0.137393  Biso 1.000000     H
    H   1.0     0.719019     0.720269     0.137500  Biso 1.000000     H
    H   1.0     0.402741     0.633747     0.189652  Biso 1.000000     H
    H   1.0     0.902112     0.633659     0.189693  Biso 1.000000     H
    H   1.0     0.357503     0.550817     0.265989  Biso 1.000000     H
    H   1.0     0.856854     0.550808     0.266050  Biso 1.000000     H
    H   1.0     0.268804     0.805882     0.074306  Biso 1.000000     H
    H   1.0     0.768065     0.805909     0.074420  Biso 1.000000     H
    H   1.0     0.396079     0.729650     0.114021  Biso 1.000000     H
    H   1.0     0.895414     0.729653     0.113988  Biso 1.000000     H
    H   1.0     0.349363     0.317753     0.992074  Biso 1.000000     H
    H   1.0     0.848906     0.318311     0.992035  Biso 1.000000     H
    H   1.0     0.480975     0.228876     0.970824  Biso 1.000000     H
    H   1.0     0.980318     0.229264     0.970132  Biso 1.000000     H
    H   1.0     0.064664     0.343941     0.972716  Biso 1.000000     H
    H   1.0     0.564993     0.344314     0.972783  Biso 1.000000     H
    H   1.0     0.385847     0.478577     0.010847  Biso 1.000000     H
    H   1.0     0.885754     0.479514     0.010555  Biso 1.000000     H
    H   1.0     0.279858     0.732622     0.930125  Biso 1.000000     H
    H   1.0     0.779388     0.732588     0.929710  Biso 1.000000     H
    H   1.0     0.279848     0.538317     0.899082  Biso 1.000000     H
    H   1.0     0.779726     0.538338     0.898601  Biso 1.000000     H
    H   1.0     0.379766     0.455787     0.869634  Biso 1.000000     H
    H   1.0     0.879878     0.456164     0.869471  Biso 1.000000     H
    H   1.0     0.137913     0.776871     0.879879  Biso 1.000000     H
    H   1.0     0.638104     0.775881     0.878872  Biso 1.000000     H
    H   1.0     0.124170     0.962102     0.914654  Biso 1.000000     H
    H   1.0     0.624764     0.961070     0.913800  Biso 1.000000     H
    H   1.0     0.016937     0.026413     0.939013  Biso 1.000000     H
    H   1.0     0.517734     0.025682     0.938625  Biso 1.000000     H
    H   1.0     0.495837     0.478197     0.853885  Biso 1.000000     H
    H   1.0     0.995995     0.478929     0.854134  Biso 1.000000     H
    H   1.0     0.088967     0.595599     0.857101  Biso 1.000000     H
    H   1.0     0.588907     0.594663     0.856399  Biso 1.000000     H
    H   1.0     0.187875     0.015756     0.838100  Biso 1.000000     H
    H   1.0     0.686707     0.016096     0.838078  Biso 1.000000     H
    H   1.0     0.318592     0.044267     0.792584  Biso 1.000000     H
    H   1.0     0.817477     0.044049     0.792590  Biso 1.000000     H
    H   1.0     0.326490     0.135924     0.713712  Biso 1.000000     H
    H   1.0     0.825430     0.135742     0.713676  Biso 1.000000     H
    H   1.0     0.281081     0.219875     0.637358  Biso 1.000000     H
    H   1.0     0.780019     0.219807     0.637347  Biso 1.000000     H
    H   1.0     0.097981     0.134126     0.689825  Biso 1.000000     H
    H   1.0     0.596896     0.134443     0.689908  Biso 1.000000     H
    H   1.0     0.143273     0.051235     0.766158  Biso 1.000000     H
    H   1.0     0.642187     0.051416     0.766205  Biso 1.000000     H
    H   1.0     0.231996     0.305888     0.574394  Biso 1.000000     H
    H   1.0     0.730922     0.305965     0.574431  Biso 1.000000     H
    H   1.0     0.104660     0.229768     0.614015  Biso 1.000000     H
    H   1.0     0.603578     0.230042     0.614113  Biso 1.000000     H
    H   1.0     0.151163     0.818294     0.492017  Biso 1.000000     H
    H   1.0     0.650654     0.817755     0.491843  Biso 1.000000     H
    H   1.0     0.019755     0.729264     0.470163  Biso 1.000000     H
    H   1.0     0.519092     0.729216     0.470130  Biso 1.000000     H
    H   1.0     0.435016     0.844501     0.472624  Biso 1.000000     H
    H   1.0     0.935399     0.843974     0.472678  Biso 1.000000     H
    H   1.0     0.114261     0.979469     0.510612  Biso 1.000000     H
    H   1.0     0.614214     0.978530     0.510563  Biso 1.000000     H
    H   1.0     0.220633     0.232396     0.429808  Biso 1.000000     H
    H   1.0     0.720388     0.232683     0.430136  Biso 1.000000     H
    H   1.0     0.220283     0.038104     0.398771  Biso 1.000000     H
    H   1.0     0.720529     0.038327     0.399171  Biso 1.000000     H
    H   1.0     0.120143     0.956008     0.369618  Biso 1.000000     H
    H   1.0     0.620666     0.955584     0.369804  Biso 1.000000     H
    H   1.0     0.361993     0.275039     0.379327  Biso 1.000000     H
    H   1.0     0.862125     0.276954     0.379882  Biso 1.000000     H
    H   1.0     0.375204     0.460331     0.414122  Biso 1.000000     H
    H   1.0     0.875856     0.462171     0.414653  Biso 1.000000     H
    H   1.0     0.482255     0.525315     0.438707  Biso 1.000000     H
    H   1.0     0.983075     0.526453     0.439009  Biso 1.000000     H
    H   1.0     0.004050     0.978901     0.354206  Biso 1.000000     H
    H   1.0     0.504569     0.977754     0.354118  Biso 1.000000     H
    H   1.0     0.411366     0.093945     0.356757  Biso 1.000000     H
    H   1.0     0.911084     0.095647     0.357120  Biso 1.000000     H
    H   1.0     0.187723     0.484381     0.661849  Biso 1.000000     H
    H   1.0     0.686833     0.484121     0.662030  Biso 1.000000     H
    H   1.0     0.318445     0.455672     0.707323  Biso 1.000000     H
    H   1.0     0.817710     0.455927     0.707293  Biso 1.000000     H
    H   1.0     0.326373     0.363674     0.786098  Biso 1.000000     H
    H   1.0     0.825762     0.363986     0.786206  Biso 1.000000     H
    H   1.0     0.281003     0.279783     0.862479  Biso 1.000000     H
    H   1.0     0.780404     0.280041     0.862585  Biso 1.000000     H
    H   1.0     0.097909     0.366389     0.810284  Biso 1.000000     H
    H   1.0     0.597282     0.366303     0.810326  Biso 1.000000     H
    H   1.0     0.143167     0.449238     0.733927  Biso 1.000000     H
    H   1.0     0.642520     0.449233     0.733989  Biso 1.000000     H
    H   1.0     0.231952     0.194134     0.925559  Biso 1.000000     H
    H   1.0     0.731218     0.194167     0.925674  Biso 1.000000     H
    H   1.0     0.104606     0.270397     0.885989  Biso 1.000000     H
    H   1.0     0.603945     0.270398     0.885957  Biso 1.000000     H
    H   1.0     0.151118     0.681730     0.007943  Biso 1.000000     H
    H   1.0     0.650656     0.682290     0.007900  Biso 1.000000     H
    H   1.0     0.019707     0.770775     0.029847  Biso 1.000000     H
    H   1.0     0.519046     0.771168     0.029154  Biso 1.000000     H
    H   1.0     0.435028     0.655730     0.027197  Biso 1.000000     H
    H   1.0     0.935361     0.656098     0.027266  Biso 1.000000     H
    H   1.0     0.114270     0.520525     0.989427  Biso 1.000000     H
    H   1.0     0.614173     0.521467     0.989134  Biso 1.000000     H
    H   1.0     0.220632     0.267460     0.070262  Biso 1.000000     H
    H   1.0     0.720162     0.267429     0.069853  Biso 1.000000     H
    H   1.0     0.220295     0.461705     0.101379  Biso 1.000000     H
    H   1.0     0.720171     0.461733     0.100899  Biso 1.000000     H
    H   1.0     0.120143     0.543874     0.130515  Biso 1.000000     H
    H   1.0     0.620252     0.544259     0.130347  Biso 1.000000     H
    H   1.0     0.361917     0.224160     0.121106  Biso 1.000000     H
    H   1.0     0.862109     0.223166     0.120103  Biso 1.000000     H
    H   1.0     0.375257     0.038975     0.086174  Biso 1.000000     H
    H   1.0     0.875852     0.037938     0.085322  Biso 1.000000     H
    H   1.0     0.482288     0.974365     0.061348  Biso 1.000000     H
    H   1.0     0.983085     0.973630     0.060962  Biso 1.000000     H
    H   1.0     0.004027     0.521105     0.145853  Biso 1.000000     H
    H   1.0     0.504181     0.521845     0.146097  Biso 1.000000     H
    H   1.0     0.411112     0.405377     0.143581  Biso 1.000000     H
    H   1.0     0.911055     0.404435     0.142885  Biso 1.000000     H
    C   1.0     0.229717     0.020858     0.118312  Biso 1.000000     C
    C   1.0     0.728516     0.020915     0.118307  Biso 1.000000     C
    C   1.0     0.262811     0.986310     0.165224  Biso 1.000000     C
    C   1.0     0.761639     0.986422     0.165223  Biso 1.000000     C
    C   1.0     0.233391     0.953845     0.207906  Biso 1.000000     C
    C   1.0     0.732279     0.953803     0.207906  Biso 1.000000     C
    C   1.0     0.262429     0.911871     0.253833  Biso 1.000000     C
    C   1.0     0.761350     0.911884     0.253837  Biso 1.000000     C
    C   1.0     0.224900     0.865099     0.291816  Biso 1.000000     C
    C   1.0     0.723835     0.865028     0.291805  Biso 1.000000     C
    C   1.0     0.250385     0.817947     0.334772  Biso 1.000000     C
    C   1.0     0.749319     0.817941     0.334779  Biso 1.000000     C
    C   1.0     0.315351     0.816011     0.342063  Biso 1.000000     C
    C   1.0     0.814279     0.816151     0.342112  Biso 1.000000     C
    C   1.0     0.352749     0.865779     0.304890  Biso 1.000000     C
    C   1.0     0.851667     0.865986     0.304949  Biso 1.000000     C
    C   1.0     0.327251     0.912244     0.261862  Biso 1.000000     C
    C   1.0     0.826168     0.912382     0.261900  Biso 1.000000     C
    C   1.0     0.357896     0.658945     0.462877  Biso 1.000000     C
    C   1.0     0.856807     0.659088     0.462945  Biso 1.000000     C
    C   1.0     0.319076     0.706534     0.422264  Biso 1.000000     C
    C   1.0     0.817997     0.706690     0.422326  Biso 1.000000     C
    C   1.0     0.345687     0.763691     0.384667  Biso 1.000000     C
    C   1.0     0.844608     0.763890     0.384740  Biso 1.000000     C
    C   1.0     0.366442     0.351985     0.525299  Biso 1.000000     C
    C   1.0     0.865546     0.351591     0.525242  Biso 1.000000     C
    C   1.0     0.386591     0.238699     0.517841  Biso 1.000000     C
    C   1.0     0.885974     0.238347     0.517722  Biso 1.000000     C
    C   1.0     0.446789     0.208541     0.520337  Biso 1.000000     C
    C   1.0     0.946220     0.208346     0.520256  Biso 1.000000     C
    C   1.0     0.472085     0.101724     0.510111  Biso 1.000000     C
    C   1.0     0.971788     0.101619     0.510063  Biso 1.000000     C
    C   1.0     0.036602     0.086807     0.515562  Biso 1.000000     C
    C   1.0     0.536851     0.086484     0.515586  Biso 1.000000     C
    C   1.0     0.435905     0.012760     0.494184  Biso 1.000000     C
    C   1.0     0.935885     0.012278     0.494159  Biso 1.000000     C
    C   1.0     0.321851     0.806742     0.583925  Biso 1.000000     C
    C   1.0     0.821739     0.806752     0.584160  Biso 1.000000     C
    C   1.0     0.322292     0.914853     0.600903  Biso 1.000000     C
    C   1.0     0.822453     0.914827     0.601177  Biso 1.000000     C
    C   1.0     0.377556     0.960406     0.617593  Biso 1.000000     C
    C   1.0     0.877869     0.960014     0.617746  Biso 1.000000     C
    C   1.0     0.432413     0.898026     0.617638  Biso 1.000000     C
    C   1.0     0.932603     0.897305     0.617633  Biso 1.000000     C
    C   1.0     0.427268     0.789536     0.600169  Biso 1.000000     C
    C   1.0     0.927188     0.788870     0.600132  Biso 1.000000     C
    C   1.0     0.481582     0.721732     0.598440  Biso 1.000000     C
    C   1.0     0.981354     0.720737     0.598252  Biso 1.000000     C
    C   1.0     0.039761     0.763058     0.613774  Biso 1.000000     C
    C   1.0     0.539850     0.764408     0.614083  Biso 1.000000     C
    C   1.0     0.091738     0.693929     0.609437  Biso 1.000000     C
    C   1.0     0.591964     0.695559     0.609877  Biso 1.000000     C
    C   1.0     0.084039     0.590294     0.590567  Biso 1.000000     C
    C   1.0     0.584541     0.591850     0.591014  Biso 1.000000     C
    C   1.0     0.024301     0.554602     0.576394  Biso 1.000000     C
    C   1.0     0.524931     0.555791     0.576710  Biso 1.000000     C
    C   1.0     0.491887     0.938372     0.633339  Biso 1.000000     C
    C   1.0     0.992205     0.937273     0.633214  Biso 1.000000     C
    C   1.0     0.043608     0.872676     0.631427  Biso 1.000000     C
    C   1.0     0.543423     0.874085     0.631695  Biso 1.000000     C
    C   1.0     0.229669     0.479117     0.381656  Biso 1.000000     C
    C   1.0     0.728627     0.478993     0.381669  Biso 1.000000     C
    C   1.0     0.262674     0.513651     0.334702  Biso 1.000000     C
    C   1.0     0.761788     0.513571     0.334783  Biso 1.000000     C
    C   1.0     0.233158     0.546178     0.292072  Biso 1.000000     C
    C   1.0     0.732424     0.546292     0.292118  Biso 1.000000     C
    C   1.0     0.262111     0.588071     0.246094  Biso 1.000000     C
    C   1.0     0.761471     0.588202     0.246177  Biso 1.000000     C
    C   1.0     0.224559     0.635049     0.208180  Biso 1.000000     C
    C   1.0     0.723942     0.635269     0.208272  Biso 1.000000     C
    C   1.0     0.250017     0.682135     0.165194  Biso 1.000000     C
    C   1.0     0.749403     0.682320     0.165285  Biso 1.000000     C
    C   1.0     0.314971     0.683797     0.157811  Biso 1.000000     C
    C   1.0     0.814354     0.683866     0.157873  Biso 1.000000     C
    C   1.0     0.352379     0.633801     0.194911  Biso 1.000000     C
    C   1.0     0.851750     0.633811     0.194966  Biso 1.000000     C
    C   1.0     0.326913     0.587400     0.237961  Biso 1.000000     C
    C   1.0     0.826273     0.587445     0.238030  Biso 1.000000     C
    C   1.0     0.357658     0.840932     0.037053  Biso 1.000000     C
    C   1.0     0.856842     0.840959     0.037050  Biso 1.000000     C
    C   1.0     0.318774     0.793350     0.077625  Biso 1.000000     C
    C   1.0     0.818041     0.793359     0.077669  Biso 1.000000     C
    C   1.0     0.345327     0.736080     0.115212  Biso 1.000000     C
    C   1.0     0.844665     0.736109     0.115236  Biso 1.000000     C
    C   1.0     0.366396     0.147862     0.975318  Biso 1.000000     C
    C   1.0     0.865586     0.148462     0.974736  Biso 1.000000     C
    C   1.0     0.386605     0.261155     0.982631  Biso 1.000000     C
    C   1.0     0.886021     0.261693     0.982255  Biso 1.000000     C
    C   1.0     0.446812     0.291264     0.980152  Biso 1.000000     C
    C   1.0     0.946261     0.291690     0.979707  Biso 1.000000     C
    C   1.0     0.472093     0.398195     0.990118  Biso 1.000000     C
    C   1.0     0.971810     0.398416     0.989905  Biso 1.000000     C
    C   1.0     0.036627     0.413213     0.984440  Biso 1.000000     C
    C   1.0     0.536839     0.413439     0.984490  Biso 1.000000     C
    C   1.0     0.435929     0.487294     0.005952  Biso 1.000000     C
    C   1.0     0.935884     0.487780     0.005797  Biso 1.000000     C
    C   1.0     0.322102     0.693341     0.915993  Biso 1.000000     C
    C   1.0     0.821744     0.693455     0.915722  Biso 1.000000     C
    C   1.0     0.322617     0.585253     0.898982  Biso 1.000000     C
    C   1.0     0.822448     0.585402     0.898671  Biso 1.000000     C
    C   1.0     0.377909     0.539823     0.882252  Biso 1.000000     C
    C   1.0     0.877871     0.540172     0.882120  Biso 1.000000     C
    C   1.0     0.432709     0.602311     0.882176  Biso 1.000000     C
    C   1.0     0.932617     0.602811     0.882276  Biso 1.000000     C
    C   1.0     0.427480     0.710784     0.899662  Biso 1.000000     C
    C   1.0     0.927205     0.711233     0.899797  Biso 1.000000     C
    C   1.0     0.481714     0.778724     0.901332  Biso 1.000000     C
    C   1.0     0.981372     0.779316     0.901701  Biso 1.000000     C
    C   1.0     0.039785     0.736961     0.886189  Biso 1.000000     C
    C   1.0     0.539995     0.736219     0.885590  Biso 1.000000     C
    C   1.0     0.091755     0.806062     0.890538  Biso 1.000000     C
    C   1.0     0.592039     0.805210     0.889723  Biso 1.000000     C
    C   1.0     0.084050     0.909701     0.909410  Biso 1.000000     C
    C   1.0     0.584542     0.908855     0.908643  Biso 1.000000     C
    C   1.0     0.024305     0.945418     0.923578  Biso 1.000000     C
    C   1.0     0.524929     0.944724     0.923080  Biso 1.000000     C
    C   1.0     0.492203     0.562114     0.866415  Biso 1.000000     C
    C   1.0     0.992228     0.562797     0.866714  Biso 1.000000     C
    C   1.0     0.043635     0.627346     0.868527  Biso 1.000000     C
    C   1.0     0.543665     0.626551     0.867980  Biso 1.000000     C
    C   1.0     0.271499     0.979121     0.881672  Biso 1.000000     C
    C   1.0     0.770298     0.979182     0.881666  Biso 1.000000     C
    C   1.0     0.238380     0.013622     0.834754  Biso 1.000000     C
    C   1.0     0.737209     0.013738     0.834753  Biso 1.000000     C
    C   1.0     0.267741     0.046246     0.792073  Biso 1.000000     C
    C   1.0     0.766629     0.046206     0.792072  Biso 1.000000     C
    C   1.0     0.238669     0.088167     0.746141  Biso 1.000000     C
    C   1.0     0.737590     0.088182     0.746145  Biso 1.000000     C
    C   1.0     0.276184     0.135022     0.708172  Biso 1.000000     C
    C   1.0     0.775119     0.134954     0.708162  Biso 1.000000     C
    C   1.0     0.250700     0.182109     0.665199  Biso 1.000000     C
    C   1.0     0.749634     0.182105     0.665205  Biso 1.000000     C
    C   1.0     0.185740     0.183899     0.657867  Biso 1.000000     C
    C   1.0     0.684668     0.184039     0.657914  Biso 1.000000     C
    C   1.0     0.148352     0.134065     0.695029  Biso 1.000000     C
    C   1.0     0.647270     0.134272     0.695088  Biso 1.000000     C
    C   1.0     0.173851     0.087669     0.738078  Biso 1.000000     C
    C   1.0     0.672767     0.087808     0.738116  Biso 1.000000     C
    C   1.0     0.143209     0.340947     0.537033  Biso 1.000000     C
    C   1.0     0.642122     0.341093     0.537102  Biso 1.000000     C
    C   1.0     0.182023     0.293354     0.577651  Biso 1.000000     C
    C   1.0     0.680944     0.293513     0.577714  Biso 1.000000     C
    C   1.0     0.155412     0.236160     0.615239  Biso 1.000000     C
    C   1.0     0.654333     0.236357     0.615311  Biso 1.000000     C
    C   1.0     0.134471     0.648447     0.474737  Biso 1.000000     C
    C   1.0     0.633576     0.648050     0.474678  Biso 1.000000     C
    C   1.0     0.114046     0.761694     0.482254  Biso 1.000000     C
    C   1.0     0.613429     0.761339     0.482135  Biso 1.000000     C
    C   1.0     0.053800     0.791695     0.479725  Biso 1.000000     C
    C   1.0     0.553230     0.791499     0.479644  Biso 1.000000     C
    C   1.0     0.028232     0.898421     0.489922  Biso 1.000000     C
    C   1.0     0.527935     0.898315     0.489871  Biso 1.000000     C
    C   1.0     0.463169     0.913557     0.484396  Biso 1.000000     C
    C   1.0     0.963418     0.913234     0.484423  Biso 1.000000     C
    C   1.0     0.064135     0.987763     0.505826  Biso 1.000000     C
    C   1.0     0.564114     0.987280     0.505799  Biso 1.000000     C
    C   1.0     0.178281     0.193289     0.415816  Biso 1.000000     C
    C   1.0     0.678162     0.193294     0.416057  Biso 1.000000     C
    C   1.0     0.177566     0.085212     0.398802  Biso 1.000000     C
    C   1.0     0.677720     0.085183     0.399080  Biso 1.000000     C
    C   1.0     0.122149     0.040024     0.382236  Biso 1.000000     C
    C   1.0     0.622454     0.039627     0.382396  Biso 1.000000     C
    C   1.0     0.067415     0.102733     0.382349  Biso 1.000000     C
    C   1.0     0.567599     0.102012     0.382344  Biso 1.000000     C
    C   1.0     0.072831     0.211169     0.399847  Biso 1.000000     C
    C   1.0     0.572745     0.210504     0.399810  Biso 1.000000     C
    C   1.0     0.018665     0.279303     0.401727  Biso 1.000000     C
    C   1.0     0.518433     0.278310     0.401539  Biso 1.000000     C
    C   1.0     0.460164     0.235636     0.385898  Biso 1.000000     C
    C   1.0     0.960257     0.236982     0.386207  Biso 1.000000     C
    C   1.0     0.408051     0.304491     0.390098  Biso 1.000000     C
    C   1.0     0.908281     0.306113     0.390544  Biso 1.000000     C
    C   1.0     0.415476     0.408198     0.408963  Biso 1.000000     C
    C   1.0     0.915981     0.409751     0.409411  Biso 1.000000     C
    C   1.0     0.475086     0.444259     0.423263  Biso 1.000000     C
    C   1.0     0.975720     0.445443     0.423583  Biso 1.000000     C
    C   1.0     0.007812     0.062765     0.366770  Biso 1.000000     C
    C   1.0     0.508123     0.061664     0.366651  Biso 1.000000     C
    C   1.0     0.456589     0.125961     0.368283  Biso 1.000000     C
    C   1.0     0.956410     0.127362     0.368558  Biso 1.000000     C
    C   1.0     0.271387     0.521039     0.618309  Biso 1.000000     C
    C   1.0     0.770346     0.520922     0.618323  Biso 1.000000     C
    C   1.0     0.238228     0.486467     0.665195  Biso 1.000000     C
    C   1.0     0.737343     0.486394     0.665277  Biso 1.000000     C
    C   1.0     0.267594     0.453755     0.707860  Biso 1.000000     C
    C   1.0     0.766862     0.453872     0.707906  Biso 1.000000     C
    C   1.0     0.238550     0.411850     0.753802  Biso 1.000000     C
    C   1.0     0.737911     0.411980     0.753884  Biso 1.000000     C
    C   1.0     0.276079     0.364781     0.791706  Biso 1.000000     C
    C   1.0     0.775464     0.365004     0.791798  Biso 1.000000     C
    C   1.0     0.250617     0.317730     0.834694  Biso 1.000000     C
    C   1.0     0.750007     0.317917     0.834784  Biso 1.000000     C
    C   1.0     0.185667     0.316183     0.842106  Biso 1.000000     C
    C   1.0     0.685052     0.316254     0.842168  Biso 1.000000     C
    C   1.0     0.148270     0.366237     0.805011  Biso 1.000000     C
    C   1.0     0.647643     0.366248     0.805068  Biso 1.000000     C
    C   1.0     0.173748     0.412603     0.761948  Biso 1.000000     C
    C   1.0     0.673109     0.412650     0.762018  Biso 1.000000     C
    C   1.0     0.143172     0.159077     0.962928  Biso 1.000000     C
    C   1.0     0.642363     0.159108     0.962926  Biso 1.000000     C
    C   1.0     0.181977     0.206685     0.922310  Biso 1.000000     C
    C   1.0     0.681248     0.206697     0.922355  Biso 1.000000     C
    C   1.0     0.155355     0.263940     0.884743  Biso 1.000000     C
    C   1.0     0.654697     0.263967     0.884767  Biso 1.000000     C
    C   1.0     0.134429     0.851575     0.025244  Biso 1.000000     C
    C   1.0     0.633622     0.852176     0.024659  Biso 1.000000     C
    C   1.0     0.114002     0.738344     0.017725  Biso 1.000000     C
    C   1.0     0.613414     0.738885     0.017345  Biso 1.000000     C
    C   1.0     0.053762     0.708346     0.020273  Biso 1.000000     C
    C   1.0     0.553208     0.708779     0.019826  Biso 1.000000     C
    C   1.0     0.028214     0.601621     0.010076  Biso 1.000000     C
    C   1.0     0.527926     0.601849     0.009860  Biso 1.000000     C
    C   1.0     0.463181     0.586605     0.015488  Biso 1.000000     C
    C   1.0     0.963397     0.586825     0.015542  Biso 1.000000     C
    C   1.0     0.064140     0.512258     0.994185  Biso 1.000000     C
    C   1.0     0.564091     0.512750     0.994026  Biso 1.000000     C
    C   1.0     0.178276     0.306589     0.084255  Biso 1.000000     C
    C   1.0     0.677918     0.306708     0.083986  Biso 1.000000     C
    C   1.0     0.177572     0.414641     0.101307  Biso 1.000000     C
    C   1.0     0.677403     0.414796     0.100998  Biso 1.000000     C
    C   1.0     0.122150     0.459867     0.117863  Biso 1.000000     C
    C   1.0     0.622110     0.460224     0.117728  Biso 1.000000     C
    C   1.0     0.067404     0.397228     0.117706  Biso 1.000000     C
    C   1.0     0.567311     0.397734     0.117804  Biso 1.000000     C
    C   1.0     0.072816     0.288807     0.100182  Biso 1.000000     C
    C   1.0     0.572540     0.289262     0.100316  Biso 1.000000     C
    C   1.0     0.018649     0.220724     0.098278  Biso 1.000000     C
    C   1.0     0.518307     0.221322     0.098645  Biso 1.000000     C
    C   1.0     0.460026     0.263824     0.114386  Biso 1.000000     C
    C   1.0     0.960237     0.263077     0.113792  Biso 1.000000     C
    C   1.0     0.407982     0.194833     0.110254  Biso 1.000000     C
    C   1.0     0.908266     0.193976     0.109441  Biso 1.000000     C
    C   1.0     0.415478     0.091190     0.091331  Biso 1.000000     C
    C   1.0     0.915972     0.090338     0.090569  Biso 1.000000     C
    C   1.0     0.475091     0.055323     0.076894  Biso 1.000000     C
    C   1.0     0.975716     0.054624     0.076397  Biso 1.000000     C
    C   1.0     0.007794     0.437238     0.133272  Biso 1.000000     C
    C   1.0     0.507816     0.437929     0.133565  Biso 1.000000     C
    C   1.0     0.456354     0.373492     0.131999  Biso 1.000000     C
    C   1.0     0.956386     0.372690     0.131456  Biso 1.000000     C
    N   1.0     0.372923     0.746171     0.583739  Biso 1.000000     N
    N   1.0     0.872689     0.745871     0.583824  Biso 1.000000     N
    N   1.0     0.474763     0.618804     0.580672  Biso 1.000000     N
    N   1.0     0.974246     0.617870     0.580474  Biso 1.000000     N
    N   1.0     0.373117     0.754015     0.916155  Biso 1.000000     N
    N   1.0     0.872703     0.754275     0.916098  Biso 1.000000     N
    N   1.0     0.474817     0.881613     0.919161  Biso 1.000000     N
    N   1.0     0.974256     0.882178     0.919487  Biso 1.000000     N
    N   1.0     0.127330     0.254168     0.416154  Biso 1.000000     N
    N   1.0     0.627092     0.253869     0.416238  Biso 1.000000     N
    N   1.0     0.025773     0.382172     0.419503  Biso 1.000000     N
    N   1.0     0.525253     0.381239     0.419304  Biso 1.000000     N
    N   1.0     0.127318     0.245765     0.083880  Biso 1.000000     N
    N   1.0     0.626904     0.246032     0.083821  Biso 1.000000     N
    N   1.0     0.025764     0.117864     0.080490  Biso 1.000000     N
    N   1.0     0.525203     0.118432     0.080817  Biso 1.000000     N
    O   1.0     0.308664     0.369722     0.518074  Biso 1.000000     O
    O   1.0     0.807752     0.369146     0.517994  Biso 1.000000     O
    O   1.0     0.407748     0.421937     0.537543  Biso 1.000000     O
    O   1.0     0.906703     0.421726     0.537588  Biso 1.000000     O
    O   1.0     0.327730     0.606466     0.498361  Biso 1.000000     O
    O   1.0     0.826621     0.606511     0.498403  Biso 1.000000     O
    O   1.0     0.415512     0.670753     0.464471  Biso 1.000000     O
    O   1.0     0.914426     0.670910     0.464543  Biso 1.000000     O
    O   1.0     0.263896     0.040560     0.079598  Biso 1.000000     O
    O   1.0     0.762706     0.040928     0.079650  Biso 1.000000     O
    O   1.0     0.170407     0.027660     0.120066  Biso 1.000000     O
    O   1.0     0.669167     0.027370     0.120015  Biso 1.000000     O
    O   1.0     0.308466     0.130485     0.981896  Biso 1.000000     O
    O   1.0     0.807801     0.130927     0.982007  Biso 1.000000     O
    O   1.0     0.407775     0.077485     0.963817  Biso 1.000000     O
    O   1.0     0.906734     0.078294     0.962367  Biso 1.000000     O
    O   1.0     0.327533     0.893307     0.001511  Biso 1.000000     O
    O   1.0     0.826651     0.893549     0.001593  Biso 1.000000     O
    O   1.0     0.415287     0.829195     0.035533  Biso 1.000000     O
    O   1.0     0.914462     0.829124     0.035449  Biso 1.000000     O
    O   1.0     0.263886     0.459429     0.420350  Biso 1.000000     O
    O   1.0     0.762769     0.459054     0.420373  Biso 1.000000     O
    O   1.0     0.170359     0.472317     0.379936  Biso 1.000000     O
    O   1.0     0.669302     0.472402     0.379903  Biso 1.000000     O
    O   1.0     0.192264     0.630892     0.481987  Biso 1.000000     O
    O   1.0     0.691354     0.630310     0.481902  Biso 1.000000     O
    O   1.0     0.093312     0.578309     0.462395  Biso 1.000000     O
    O   1.0     0.592267     0.578098     0.462438  Biso 1.000000     O
    O   1.0     0.173392     0.393518     0.501571  Biso 1.000000     O
    O   1.0     0.672285     0.393560     0.501612  Biso 1.000000     O
    O   1.0     0.085590     0.329123     0.535439  Biso 1.000000     O
    O   1.0     0.584505     0.329282     0.535510  Biso 1.000000     O
    O   1.0     0.237305     0.959107     0.920327  Biso 1.000000     O
    O   1.0     0.736116     0.959487     0.920380  Biso 1.000000     O
    O   1.0     0.330847     0.972660     0.879967  Biso 1.000000     O
    O   1.0     0.829607     0.972363     0.879915  Biso 1.000000     O
    O   1.0     0.192214     0.869122     0.017974  Biso 1.000000     O
    O   1.0     0.691553     0.869550     0.018084  Biso 1.000000     O
    O   1.0     0.093277     0.921735     0.037614  Biso 1.000000     O
    O   1.0     0.592241     0.922554     0.036157  Biso 1.000000     O
    O   1.0     0.173360     0.106477     0.998383  Biso 1.000000     O
    O   1.0     0.672484     0.106727     0.998468  Biso 1.000000     O
    O   1.0     0.085553     0.170910     0.964529  Biso 1.000000     O
    O   1.0     0.584733     0.170843     0.964446  Biso 1.000000     O
    O   1.0     0.237244     0.540980     0.579606  Biso 1.000000     O
    O   1.0     0.736128     0.540610     0.579629  Biso 1.000000     O
    O   1.0     0.330712     0.527628     0.620077  Biso 1.000000     O
    O   1.0     0.829657     0.527707     0.620043  Biso 1.000000     O
   Zn   1.0     0.383468     0.574085     0.559878  Biso 1.000000    Zn
   Zn   1.0     0.882442     0.574004     0.559855  Biso 1.000000    Zn
   Zn   1.0     0.383525     0.926005     0.940163  Biso 1.000000    Zn
   Zn   1.0     0.882441     0.926058     0.940111  Biso 1.000000    Zn
   Zn   1.0     0.117568     0.426024     0.440126  Biso 1.000000    Zn
   Zn   1.0     0.616545     0.425942     0.440102  Biso 1.000000    Zn
   Zn   1.0     0.117571     0.073967     0.059870  Biso 1.000000    Zn
   Zn   1.0     0.616491     0.074023     0.059818  Biso 1.000000    Zn
   Zn   1.0     0.250573     0.500118     0.499997  Biso 1.000000    Zn
   Zn   1.0     0.749437     0.499906     0.499984  Biso 1.000000    Zn
   Zn   1.0     0.250550    -0.000097    -0.000014  Biso 1.000000    Zn
   Zn   1.0     0.749455     0.000112     0.000010  Biso 1.000000    Zn
