#======================================================================

# CRYSTAL DATA

#----------------------------------------------------------------------

data_VESTA_phase_1


_pd_phase_name                         MOF
_cell_length_a                         13.00000
_cell_length_b                         18.34300
_cell_length_c                         18.75100
_cell_angle_alpha                      90.17800
_cell_angle_beta                       96.46700
_cell_angle_gamma                      90.12300
_symmetry_space_group_name_H-M         "P 1"
_symmetry_Int_Tables_number            1

loop_
_symmetry_equiv_pos_as_xyz
   "x, y, z"

loop_
   _atom_site_label
   _atom_site_occupancy
   _atom_site_fract_x
   _atom_site_fract_y
   _atom_site_fract_z
   _atom_site_adp_type
   _atom_site_B_iso_or_equiv
   _atom_site_type_symbol
    H   1.0     0.328611     0.719036     0.270944  Biso 1.000000     H
    H   1.0     0.828584     0.720386     0.272688  Biso 1.000000     H
    H   1.0     0.228069     0.770566     0.303313  Biso 1.000000     H
    H   1.0     0.727206     0.771341     0.304577  Biso 1.000000     H
    H   1.0     0.329424     0.687858     0.148624  Biso 1.000000     H
    H   1.0     0.830384     0.688739     0.150344  Biso 1.000000     H
    H   1.0     0.256255     0.700964     0.021283  Biso 1.000000     H
    H   1.0     0.757634     0.701022     0.022857  Biso 1.000000     H
    H   1.0     0.079424     0.754649    -0.008107  Biso 1.000000     H
    H   1.0     0.580372     0.753831    -0.007165  Biso 1.000000     H
    H   1.0     0.480758     0.794167     0.091230  Biso 1.000000     H
    H   1.0     0.980679     0.795033     0.090716  Biso 1.000000     H
    H   1.0     0.452966     0.791903     0.212983  Biso 1.000000     H
    H   1.0     0.953246     0.791943     0.212618  Biso 1.000000     H
    H   1.0     0.045459     0.756714     0.281216  Biso 1.000000     H
    H   1.0     0.544925     0.756798     0.281869  Biso 1.000000     H
    H   1.0     0.409135     0.456513     0.242256  Biso 1.000000     H
    H   1.0     0.907548     0.457129     0.241023  Biso 1.000000     H
    H   1.0     0.277453     0.452246     0.138127  Biso 1.000000     H
    H   1.0     0.776414     0.452865     0.136770  Biso 1.000000     H
    H   1.0     0.478866     0.590387     0.026651  Biso 1.000000     H
    H   1.0     0.978635     0.590605     0.025522  Biso 1.000000     H
    H   1.0     0.102848     0.589381     0.137117  Biso 1.000000     H
    H   1.0     0.603518     0.589251     0.138091  Biso 1.000000     H
    H   1.0     0.318200     0.551268     0.961422  Biso 1.000000     H
    H   1.0     0.817851     0.551703     0.959932  Biso 1.000000     H
    H   1.0     0.478159     0.611993     0.345767  Biso 1.000000     H
    H   1.0     0.978735     0.611968     0.346573  Biso 1.000000     H
    H   1.0     0.334752     0.601093     0.421751  Biso 1.000000     H
    H   1.0     0.836242     0.601191     0.423354  Biso 1.000000     H
    H   1.0     0.428201     0.377106     0.461831  Biso 1.000000     H
    H   1.0     0.927829     0.376526     0.461367  Biso 1.000000     H
    H   1.0     0.063933     0.395958     0.379499  Biso 1.000000     H
    H   1.0     0.565401     0.396666     0.380850  Biso 1.000000     H
    H   1.0     0.293894     0.425660     0.526930  Biso 1.000000     H
    H   1.0     0.794562     0.425452     0.527642  Biso 1.000000     H
    H   1.0     0.421070     0.219337     0.229586  Biso 1.000000     H
    H   1.0     0.920237     0.218033     0.229979  Biso 1.000000     H
    H   1.0     0.019963     0.270127     0.197128  Biso 1.000000     H
    H   1.0     0.521706     0.270652     0.196895  Biso 1.000000     H
    H   1.0     0.421184     0.188329     0.351812  Biso 1.000000     H
    H   1.0     0.920548     0.188096     0.352396  Biso 1.000000     H
    H   1.0     0.495263     0.201869     0.479006  Biso 1.000000     H
    H   1.0     0.994975     0.202259     0.479464  Biso 1.000000     H
    H   1.0     0.172060     0.256592     0.507989  Biso 1.000000     H
    H   1.0     0.672357     0.256109     0.508016  Biso 1.000000     H
    H   1.0     0.269727     0.296501     0.408568  Biso 1.000000     H
    H   1.0     0.770280     0.296562     0.408954  Biso 1.000000     H
    H   1.0     0.295872     0.292592     0.286403  Biso 1.000000     H
    H   1.0     0.796860     0.292881     0.286711  Biso 1.000000     H
    H   1.0     0.202877     0.256871     0.218197  Biso 1.000000     H
    H   1.0     0.703467     0.258341     0.218133  Biso 1.000000     H
    H   1.0     0.341509     0.956910     0.257980  Biso 1.000000     H
    H   1.0     0.839609     0.957112     0.258010  Biso 1.000000     H
    H   1.0     0.472804     0.952156     0.362279  Biso 1.000000     H
    H   1.0     0.971221     0.952537     0.362081  Biso 1.000000     H
    H   1.0     0.272122     0.089852     0.474838  Biso 1.000000     H
    H   1.0     0.771234     0.090852     0.474606  Biso 1.000000     H
    H   1.0     0.147737     0.089129     0.363324  Biso 1.000000     H
    H   1.0     0.646567     0.089977     0.363282  Biso 1.000000     H
    H   1.0     0.432036     0.050531     0.539994  Biso 1.000000     H
    H   1.0     0.930957     0.051312     0.539762  Biso 1.000000     H
    H   1.0     0.270086     0.112270     0.153818  Biso 1.000000     H
    H   1.0     0.768617     0.111808     0.154118  Biso 1.000000     H
    H   1.0     0.413014     0.101752     0.077311  Biso 1.000000     H
    H   1.0     0.912101     0.100781     0.078140  Biso 1.000000     H
    H   1.0     0.321795     0.876640     0.038520  Biso 1.000000     H
    H   1.0     0.819823     0.875845     0.039317  Biso 1.000000     H
    H   1.0     0.185082     0.895881     0.120025  Biso 1.000000     H
    H   1.0     0.682763     0.895575     0.120392  Biso 1.000000     H
    H   1.0     0.454992     0.925803     0.972637  Biso 1.000000     H
    H   1.0     0.953695     0.924674     0.973664  Biso 1.000000     H
    H   1.0     0.169598     0.281073     0.729313  Biso 1.000000     H
    H   1.0     0.671053     0.280715     0.728959  Biso 1.000000     H
    H   1.0     0.269573     0.229445     0.696359  Biso 1.000000     H
    H   1.0     0.771697     0.229237     0.696648  Biso 1.000000     H
    H   1.0     0.170171     0.312319     0.851698  Biso 1.000000     H
    H   1.0     0.669866     0.311557     0.851344  Biso 1.000000     H
    H   1.0     0.244495     0.299202     0.978784  Biso 1.000000     H
    H   1.0     0.742901     0.298438     0.978700  Biso 1.000000     H
    H   1.0     0.421288     0.245183     0.000000  Biso 1.000000     H
    H   1.0     0.919893     0.244968     0.000000  Biso 1.000000     H
    H   1.0     0.018922     0.204919     0.909397  Biso 1.000000     H
    H   1.0     0.518704     0.204369     0.908022  Biso 1.000000     H
    H   1.0     0.046480     0.208089     0.787539  Biso 1.000000     H
    H   1.0     0.544833     0.207469     0.785645  Biso 1.000000     H
    H   1.0     0.451372     0.241603     0.717293  Biso 1.000000     H
    H   1.0     0.954303     0.243334     0.718919  Biso 1.000000     H
    H   1.0     0.091423     0.543071     0.760550  Biso 1.000000     H
    H   1.0     0.589846     0.543961     0.758978  Biso 1.000000     H
    H   1.0     0.222876     0.547493     0.864656  Biso 1.000000     H
    H   1.0     0.721526     0.548403     0.863089  Biso 1.000000     H
    H   1.0     0.021625     0.409056     0.976060  Biso 1.000000     H
    H   1.0     0.520786     0.409615     0.974414  Biso 1.000000     H
    H   1.0     0.396086     0.410656     0.863086  Biso 1.000000     H
    H   1.0     0.897040     0.410152     0.864574  Biso 1.000000     H
    H   1.0     0.182065     0.448308     0.041424  Biso 1.000000     H
    H   1.0     0.681195     0.448991     0.039764  Biso 1.000000     H
    H   1.0     0.021582     0.387911     0.655229  Biso 1.000000     H
    H   1.0     0.520904     0.388202     0.655192  Biso 1.000000     H
    H   1.0     0.163442     0.398691     0.577937  Biso 1.000000     H
    H   1.0     0.664568     0.399057     0.579374  Biso 1.000000     H
    H   1.0     0.071631     0.623336     0.540202  Biso 1.000000     H
    H   1.0     0.571302     0.623059     0.539166  Biso 1.000000     H
    H   1.0     0.433998     0.603596     0.620112  Biso 1.000000     H
    H   1.0     0.935893     0.603813     0.622297  Biso 1.000000     H
    H   1.0     0.204801     0.574555     0.473752  Biso 1.000000     H
    H   1.0     0.705808     0.574389     0.474235  Biso 1.000000     H
    H   1.0     0.078032     0.781485     0.770809  Biso 1.000000     H
    H   1.0     0.577578     0.781441     0.770536  Biso 1.000000     H
    H   1.0     0.477240     0.729633     0.802969  Biso 1.000000     H
    H   1.0     0.977845     0.729708     0.803565  Biso 1.000000     H
    H   1.0     0.078132     0.811448     0.648355  Biso 1.000000     H
    H   1.0     0.578209     0.811667     0.648221  Biso 1.000000     H
    H   1.0     0.004084     0.797215     0.521216  Biso 1.000000     H
    H   1.0     0.504572     0.797885     0.520955  Biso 1.000000     H
    H   1.0     0.327402     0.743839     0.491744  Biso 1.000000     H
    H   1.0     0.827011     0.742867     0.492463  Biso 1.000000     H
    H   1.0     0.228927     0.703830     0.590691  Biso 1.000000     H
    H   1.0     0.729044     0.703028     0.591726  Biso 1.000000     H
    H   1.0     0.201962     0.707279     0.712633  Biso 1.000000     H
    H   1.0     0.702657     0.706483     0.713790  Biso 1.000000     H
    H   1.0     0.294361     0.743128     0.781167  Biso 1.000000     H
    H   1.0     0.795055     0.742860     0.782043  Biso 1.000000     H
    H   1.0     0.155950     0.042026     0.741699  Biso 1.000000     H
    H   1.0     0.658485     0.042620     0.741347  Biso 1.000000     H
    H   1.0     0.025453     0.046861     0.637116  Biso 1.000000     H
    H   1.0     0.527240     0.046702     0.637112  Biso 1.000000     H
    H   1.0     0.227164     0.909391     0.525094  Biso 1.000000     H
    H   1.0     0.728893     0.909383     0.524912  Biso 1.000000     H
    H   1.0     0.350895     0.910223     0.636937  Biso 1.000000     H
    H   1.0     0.853093     0.910629     0.636499  Biso 1.000000     H
    H   1.0     0.067114     0.948578     0.459450  Biso 1.000000     H
    H   1.0     0.568627     0.948285     0.459479  Biso 1.000000     H
    H   1.0     0.227432     0.887342     0.846336  Biso 1.000000     H
    H   1.0     0.728774     0.888301     0.845587  Biso 1.000000     H
    H   1.0     0.084632     0.897955     0.922960  Biso 1.000000     H
    H   1.0     0.585396     0.899209     0.921657  Biso 1.000000     H
    H   1.0     0.175945     0.123075     0.961513  Biso 1.000000     H
    H   1.0     0.677811     0.124064     0.960822  Biso 1.000000     H
    H   1.0     0.312581     0.103715     0.879942  Biso 1.000000     H
    H   1.0     0.814746     0.104472     0.879604  Biso 1.000000     H
    H   1.0     0.042682     0.074035     0.027395  Biso 1.000000     H
    H   1.0     0.543901     0.075173     0.026408  Biso 1.000000     H
    C   1.0     0.204521     0.654559     0.302443  Biso 1.000000     C
    C   1.0     0.705011     0.655160     0.303718  Biso 1.000000     C
    C   1.0     0.243985     0.724309     0.269039  Biso 1.000000     C
    C   1.0     0.743843     0.725175     0.270406  Biso 1.000000     C
    C   1.0     0.198004     0.734912     0.192038  Biso 1.000000     C
    C   1.0     0.698316     0.735424     0.193272  Biso 1.000000     C
    C   1.0     0.253055     0.712168     0.135727  Biso 1.000000     C
    C   1.0     0.753847     0.712715     0.137197  Biso 1.000000     C
    C   1.0     0.211844     0.719123     0.064035  Biso 1.000000     C
    C   1.0     0.712846     0.719168     0.065412  Biso 1.000000     C
    C   1.0     0.113243     0.749058     0.047564  Biso 1.000000     C
    C   1.0     0.614012     0.748615     0.048583  Biso 1.000000     C
    C   1.0     0.057615     0.771558     0.103155  Biso 1.000000     C
    C   1.0     0.557893     0.771082     0.103931  Biso 1.000000     C
    C   1.0     0.098175     0.764907     0.175407  Biso 1.000000     C
    C   1.0     0.598273     0.764934     0.176262  Biso 1.000000     C
    C   1.0     0.035807     0.791674     0.233611  Biso 1.000000     C
    C   1.0     0.535423     0.791695     0.234213  Biso 1.000000     C
    C   1.0     0.063973     0.870179     0.257844  Biso 1.000000     C
    C   1.0     0.563677     0.870205     0.258305  Biso 1.000000     C
    C   1.0     0.422323     0.484981     0.193185  Biso 1.000000     C
    C   1.0     0.921091     0.485504     0.191967  Biso 1.000000     C
    C   1.0     0.348565     0.482857     0.134046  Biso 1.000000     C
    C   1.0     0.847577     0.483394     0.132669  Biso 1.000000     C
    C   1.0     0.367154     0.520118     0.071191  Biso 1.000000     C
    C   1.0     0.866435     0.520534     0.069802  Biso 1.000000     C
    C   1.0     0.460571     0.559592     0.073267  Biso 1.000000     C
    C   1.0     0.960013     0.559872     0.072092  Biso 1.000000     C
    C   1.0     0.029929     0.559423     0.133824  Biso 1.000000     C
    C   1.0     0.530700     0.559176     0.134860  Biso 1.000000     C
    C   1.0     0.295097     0.518869     0.005818  Biso 1.000000     C
    C   1.0     0.794500     0.519357     0.004293  Biso 1.000000     C
    C   1.0     0.462711     0.560617     0.371534  Biso 1.000000     C
    C   1.0     0.962920     0.560464     0.371971  Biso 1.000000     C
    C   1.0     0.383707     0.554157     0.414689  Biso 1.000000     C
    C   1.0     0.884539     0.554070     0.415638  Biso 1.000000     C
    C   1.0     0.367863     0.487311     0.448686  Biso 1.000000     C
    C   1.0     0.868410     0.487060     0.449244  Biso 1.000000     C
    C   1.0     0.435382     0.429925     0.436384  Biso 1.000000     C
    C   1.0     0.935174     0.429464     0.436188  Biso 1.000000     C
    C   1.0     0.512265     0.440168     0.391693  Biso 1.000000     C
    C   1.0     0.000000     0.439621     0.390989  Biso 1.000000     C
    C   1.0     0.287806     0.476215     0.496008  Biso 1.000000     C
    C   1.0     0.788585     0.476033     0.496758  Biso 1.000000     C
    C   1.0     0.044426     0.154300     0.197733  Biso 1.000000     C
    C   1.0     0.544637     0.154613     0.197781  Biso 1.000000     C
    C   1.0     0.004760     0.223906     0.231442  Biso 1.000000     C
    C   1.0     0.505688     0.224614     0.231197  Biso 1.000000     C
    C   1.0     0.051498     0.235117     0.308283  Biso 1.000000     C
    C   1.0     0.552275     0.235638     0.308106  Biso 1.000000     C
    C   1.0     0.497642     0.212861     0.364555  Biso 1.000000     C
    C   1.0     0.997028     0.212660     0.364916  Biso 1.000000     C
    C   1.0     0.038963     0.220198     0.436458  Biso 1.000000     C
    C   1.0     0.539385     0.220061     0.436162  Biso 1.000000     C
    C   1.0     0.137678     0.250498     0.452449  Biso 1.000000     C
    C   1.0     0.638103     0.250289     0.452418  Biso 1.000000     C
    C   1.0     0.192725     0.272709     0.396523  Biso 1.000000     C
    C   1.0     0.693289     0.272825     0.396683  Biso 1.000000     C
    C   1.0     0.151430     0.265489     0.324424  Biso 1.000000     C
    C   1.0     0.652182     0.265973     0.324501  Biso 1.000000     C
    C   1.0     0.213131     0.292069     0.265856  Biso 1.000000     C
    C   1.0     0.714109     0.292959     0.266187  Biso 1.000000     C
    C   1.0     0.184964     0.370406     0.241871  Biso 1.000000     C
    C   1.0     0.686791     0.371691     0.243224  Biso 1.000000     C
    C   1.0     0.328313     0.985159     0.307319  Biso 1.000000     C
    C   1.0     0.826669     0.985590     0.307275  Biso 1.000000     C
    C   1.0     0.401913     0.982779     0.366558  Biso 1.000000     C
    C   1.0     0.900452     0.983292     0.366414  Biso 1.000000     C
    C   1.0     0.383519     0.019753     0.429810  Biso 1.000000     C
    C   1.0     0.882313     0.020450     0.429622  Biso 1.000000     C
    C   1.0     0.290351     0.059240     0.427944  Biso 1.000000     C
    C   1.0     0.789269     0.060080     0.427759  Biso 1.000000     C
    C   1.0     0.220347     0.059061     0.366263  Biso 1.000000     C
    C   1.0     0.719098     0.059821     0.366161  Biso 1.000000     C
    C   1.0     0.455370     0.018364     0.495342  Biso 1.000000     C
    C   1.0     0.954160     0.019011     0.495157  Biso 1.000000     C
    C   1.0     0.286049     0.060755     0.128285  Biso 1.000000     C
    C   1.0     0.784553     0.060206     0.128743  Biso 1.000000     C
    C   1.0     0.364713     0.054485     0.084831  Biso 1.000000     C
    C   1.0     0.863480     0.053653     0.085555  Biso 1.000000     C
    C   1.0     0.381014     0.987438     0.051069  Biso 1.000000     C
    C   1.0     0.879597     0.986515     0.051907  Biso 1.000000     C
    C   1.0     0.314214     0.929638     0.063803  Biso 1.000000     C
    C   1.0     0.812407     0.928908     0.064506  Biso 1.000000     C
    C   1.0     0.237650     0.939687     0.108786  Biso 1.000000     C
    C   1.0     0.735607     0.939238     0.109247  Biso 1.000000     C
    C   1.0     0.460987     0.976499     0.003654  Biso 1.000000     C
    C   1.0     0.959724     0.975378     0.004661  Biso 1.000000     C
    C   1.0     0.293656     0.345437     0.697524  Biso 1.000000     C
    C   1.0     0.795294     0.345276     0.697736  Biso 1.000000     C
    C   1.0     0.254151     0.275658     0.730830  Biso 1.000000     C
    C   1.0     0.755696     0.275445     0.730959  Biso 1.000000     C
    C   1.0     0.300819     0.264887     0.807653  Biso 1.000000     C
    C   1.0     0.801523     0.264788     0.807982  Biso 1.000000     C
    C   1.0     0.246496     0.287848     0.864259  Biso 1.000000     C
    C   1.0     0.746302     0.287354     0.864268  Biso 1.000000     C
    C   1.0     0.288370     0.280893     0.935804  Biso 1.000000     C
    C   1.0     0.787451     0.280404     0.935975  Biso 1.000000     C
    C   1.0     0.386946     0.250773     0.951823  Biso 1.000000     C
    C   1.0     0.886124     0.250597     0.952501  Biso 1.000000     C
    C   1.0     0.441832     0.228044     0.895938  Biso 1.000000     C
    C   1.0     0.941929     0.228291     0.896930  Biso 1.000000     C
    C   1.0     0.400554     0.234622     0.823821  Biso 1.000000     C
    C   1.0     0.901426     0.234933     0.824669  Biso 1.000000     C
    C   1.0     0.462001     0.207295     0.765329  Biso 1.000000     C
    C   1.0     0.963945     0.208322     0.766487  Biso 1.000000     C
    C   1.0     0.434082     0.128389     0.742411  Biso 1.000000     C
    C   1.0     0.935935     0.129831     0.742147  Biso 1.000000     C
    C   1.0     0.078233     0.514586     0.809610  Biso 1.000000     C
    C   1.0     0.576781     0.515377     0.808011  Biso 1.000000     C
    C   1.0     0.151886     0.516756     0.868789  Biso 1.000000     C
    C   1.0     0.650577     0.517592     0.867153  Biso 1.000000     C
    C   1.0     0.133264     0.479444     0.931613  Biso 1.000000     C
    C   1.0     0.632291     0.480172     0.929996  Biso 1.000000     C
    C   1.0     0.039907     0.439874     0.929455  Biso 1.000000     C
    C   1.0     0.538976     0.440531     0.927843  Biso 1.000000     C
    C   1.0     0.468781     0.440882     0.866256  Biso 1.000000     C
    C   1.0     0.969837     0.440262     0.867837  Biso 1.000000     C
    C   1.0     0.205211     0.480705     0.997039  Biso 1.000000     C
    C   1.0     0.704433     0.481366     0.995390  Biso 1.000000     C
    C   1.0     0.037136     0.439412     0.629739  Biso 1.000000     C
    C   1.0     0.536548     0.439571     0.629485  Biso 1.000000     C
    C   1.0     0.115242     0.445816     0.585833  Biso 1.000000     C
    C   1.0     0.615628     0.446005     0.586409  Biso 1.000000     C
    C   1.0     0.131217     0.512833     0.552207  Biso 1.000000     C
    C   1.0     0.631576     0.512842     0.552432  Biso 1.000000     C
    C   1.0     0.064464     0.570389     0.565398  Biso 1.000000     C
    C   1.0     0.564068     0.570263     0.564646  Biso 1.000000     C
    C   1.0    -0.011580     0.560186     0.610758  Biso 1.000000     C
    C   1.0     0.487122     0.560077     0.609290  Biso 1.000000     C
    C   1.0     0.210903     0.523943     0.504584  Biso 1.000000     C
    C   1.0     0.711739     0.523855     0.505191  Biso 1.000000     C
    C   1.0     0.453395     0.845520     0.802335  Biso 1.000000     C
    C   1.0     0.953648     0.845590     0.802348  Biso 1.000000     C
    C   1.0     0.492976     0.775806     0.768747  Biso 1.000000     C
    C   1.0     0.993475     0.775765     0.769173  Biso 1.000000     C
    C   1.0     0.446757     0.764718     0.691779  Biso 1.000000     C
    C   1.0     0.947034     0.764417     0.692277  Biso 1.000000     C
    C   1.0     0.001681     0.786870     0.635733  Biso 1.000000     C
    C   1.0     0.501703     0.787227     0.635402  Biso 1.000000     C
    C   1.0     0.460218     0.779884     0.563746  Biso 1.000000     C
    C   1.0     0.959956     0.779281     0.564151  Biso 1.000000     C
    C   1.0     0.361468     0.749750     0.547375  Biso 1.000000     C
    C   1.0     0.861253     0.748994     0.548033  Biso 1.000000     C
    C   1.0     0.305972     0.727464     0.603045  Biso 1.000000     C
    C   1.0     0.806039     0.726795     0.603881  Biso 1.000000     C
    C   1.0     0.346806     0.734480     0.675258  Biso 1.000000     C
    C   1.0     0.847123     0.734048     0.676020  Biso 1.000000     C
    C   1.0     0.284565     0.707877     0.733534  Biso 1.000000     C
    C   1.0     0.785315     0.707439     0.734533  Biso 1.000000     C
    C   1.0     0.312676     0.629581     0.757680  Biso 1.000000     C
    C   1.0     0.814259     0.629341     0.758836  Biso 1.000000     C
    C   1.0     0.169584     0.013854     0.692408  Biso 1.000000     C
    C   1.0     0.671875     0.014266     0.692105  Biso 1.000000     C
    C   1.0     0.096381     0.016246     0.632949  Biso 1.000000     C
    C   1.0     0.598321     0.016311     0.632837  Biso 1.000000     C
    C   1.0     0.115287     0.979383     0.569751  Biso 1.000000     C
    C   1.0     0.617015     0.979279     0.569679  Biso 1.000000     C
    C   1.0     0.208549     0.939968     0.571909  Biso 1.000000     C
    C   1.0     0.710415     0.940049     0.571709  Biso 1.000000     C
    C   1.0     0.278179     0.940177     0.633790  Biso 1.000000     C
    C   1.0     0.780335     0.940526     0.633444  Biso 1.000000     C
    C   1.0     0.043778     0.980854     0.504033  Biso 1.000000     C
    C   1.0     0.545231     0.980480     0.504096  Biso 1.000000     C
    C   1.0     0.211507     0.938882     0.871839  Biso 1.000000     C
    C   1.0     0.712888     0.939867     0.871048  Biso 1.000000     C
    C   1.0     0.132919     0.945204     0.915349  Biso 1.000000     C
    C   1.0     0.634027     0.946347     0.914304  Biso 1.000000     C
    C   1.0     0.116659     0.012296     0.949037  Biso 1.000000     C
    C   1.0     0.617963     0.013427     0.948074  Biso 1.000000     C
    C   1.0     0.183474     0.070063     0.936247  Biso 1.000000     C
    C   1.0     0.685157     0.071050     0.935521  Biso 1.000000     C
    C   1.0     0.259971     0.059953     0.891230  Biso 1.000000     C
    C   1.0     0.761886     0.060801     0.890704  Biso 1.000000     C
    C   1.0     0.036675     0.023316     0.996417  Biso 1.000000     C
    C   1.0     0.537886     0.024483     0.995387  Biso 1.000000     C
    N   1.0     0.011710     0.522128     0.193201  Biso 1.000000     N
    N   1.0     0.512785     0.521746     0.194208  Biso 1.000000     N
    N   1.0     0.025696     0.504281     0.359014  Biso 1.000000     N
    N   1.0     0.526378     0.504684     0.359426  Biso 1.000000     N
    N   1.0     0.238068     0.021893     0.306515  Biso 1.000000     N
    N   1.0     0.736513     0.022442     0.306473  Biso 1.000000     N
    N   1.0     0.223173     0.004403     0.140863  Biso 1.000000     N
    N   1.0     0.721279     0.004039     0.141187  Biso 1.000000     N
    N   1.0     0.486448     0.478396     0.806894  Biso 1.000000     N
    N   1.0     0.987814     0.477745     0.808529  Biso 1.000000     N
    N   1.0     0.472930     0.495555     0.641531  Biso 1.000000     N
    N   1.0     0.974409     0.495558     0.642856  Biso 1.000000     N
    N   1.0     0.259962     0.977253     0.693484  Biso 1.000000     N
    N   1.0     0.762337     0.977772     0.693086  Biso 1.000000     N
    N   1.0     0.274350     0.995214     0.859170  Biso 1.000000     N
    N   1.0     0.776154     0.996050     0.858638  Biso 1.000000     N
    O   1.0     0.173049     0.656056     0.362738  Biso 1.000000     O
    O   1.0     0.675725     0.655976     0.364700  Biso 1.000000     O
    O   1.0     0.208740     0.596766     0.262302  Biso 1.000000     O
    O   1.0     0.707677     0.597888     0.262668  Biso 1.000000     O
    O   1.0     0.088900     0.884731     0.322256  Biso 1.000000     O
    O   1.0     0.591002     0.884631     0.322458  Biso 1.000000     O
    O   1.0     0.057514     0.916831     0.205125  Biso 1.000000     O
    O   1.0     0.554969     0.917057     0.205731  Biso 1.000000     O
    O   1.0     0.075757     0.155863     0.137403  Biso 1.000000     O
    O   1.0     0.577659     0.155914     0.137972  Biso 1.000000     O
    O   1.0     0.040422     0.096588     0.237702  Biso 1.000000     O
    O   1.0     0.538422     0.096886     0.237462  Biso 1.000000     O
    O   1.0     0.159839     0.384653     0.177515  Biso 1.000000     O
    O   1.0     0.661768     0.387026     0.179071  Biso 1.000000     O
    O   1.0     0.191558     0.417297     0.294679  Biso 1.000000     O
    O   1.0     0.693714     0.417917     0.296633  Biso 1.000000     O
    O   1.0     0.325268     0.344002     0.637275  Biso 1.000000     O
    O   1.0     0.826720     0.343926     0.637429  Biso 1.000000     O
    O   1.0     0.289176     0.403206     0.737679  Biso 1.000000     O
    O   1.0     0.791081     0.402906     0.738098  Biso 1.000000     O
    O   1.0     0.409147     0.112583     0.678254  Biso 1.000000     O
    O   1.0     0.910726     0.115396     0.677743  Biso 1.000000     O
    O   1.0     0.440359     0.082671     0.795916  Biso 1.000000     O
    O   1.0     0.942646     0.083066     0.794772  Biso 1.000000     O
    O   1.0     0.421981     0.844069     0.862647  Biso 1.000000     O
    O   1.0     0.920211     0.844224     0.862019  Biso 1.000000     O
    O   1.0     0.457513     0.903192     0.762339  Biso 1.000000     O
    O   1.0     0.959573     0.903284     0.762586  Biso 1.000000     O
    O   1.0     0.337804     0.615426     0.822057  Biso 1.000000     O
    O   1.0     0.839906     0.615380     0.823211  Biso 1.000000     O
    O   1.0     0.306208     0.582623     0.704906  Biso 1.000000     O
    O   1.0     0.807871     0.582214     0.706228  Biso 1.000000     O
   Zn   1.0     0.124583     0.512415     0.280809  Biso 1.000000    Zn
   Zn   1.0     0.626138     0.512558     0.281387  Biso 1.000000    Zn
   Zn   1.0     0.124368     0.012312     0.219180  Biso 1.000000    Zn
   Zn   1.0     0.622322     0.012405     0.219321  Biso 1.000000    Zn
   Zn   1.0     0.373253     0.487609     0.719271  Biso 1.000000    Zn
   Zn   1.0     0.875458     0.487548     0.721423  Biso 1.000000    Zn
   Zn   1.0     0.373347     0.987374     0.780932  Biso 1.000000    Zn
   Zn   1.0     0.875548     0.987670     0.780750  Biso 1.000000    Zn
