#======================================================================

# CRYSTAL DATA

#----------------------------------------------------------------------

data_VESTA_phase_1


_pd_phase_name                         MOF
_cell_length_a                         11.62800
_cell_length_b                         13.00200
_cell_length_c                         13.00300
_cell_angle_alpha                      95.91000
_cell_angle_beta                       106.12100
_cell_angle_gamma                      106.09600
_symmetry_space_group_name_H-M         "P 1"
_symmetry_Int_Tables_number            1

loop_
_symmetry_equiv_pos_as_xyz
   "x, y, z"

loop_
   _atom_site_label
   _atom_site_occupancy
   _atom_site_fract_x
   _atom_site_fract_y
   _atom_site_fract_z
   _atom_site_adp_type
   _atom_site_B_iso_or_equiv
   _atom_site_type_symbol
    H   1.0     0.908852     0.309931     0.167514  Biso 1.000000     H
    H   1.0     0.000000     0.348022     0.369162  Biso 1.000000     H
    H   1.0     0.978232     0.325387     0.550655  Biso 1.000000     H
    H   1.0     0.590367     0.125738     0.396884  Biso 1.000000     H
    H   1.0     0.499508     0.081659     0.194368  Biso 1.000000     H
    H   1.0     0.523273     0.104134     0.013447  Biso 1.000000     H
    H   1.0     0.421586     0.122088     0.829747  Biso 1.000000     H
    H   1.0     0.186282     0.059854     0.761420  Biso 1.000000     H
    H   1.0     0.210067     0.046228     0.434424  Biso 1.000000     H
    H   1.0     0.442185     0.106044     0.516645  Biso 1.000000     H
    H   1.0    -0.005966     0.000000     0.617359  Biso 1.000000     H
    H   1.0     0.591230     0.832574     0.689492  Biso 1.000000     H
    H   1.0     0.498174     0.630844     0.650321  Biso 1.000000     H
    H   1.0     0.522285     0.449326     0.672823  Biso 1.000000     H
    H   1.0     0.909490     0.603080     0.874188  Biso 1.000000     H
    H   1.0     0.000000     0.805552     0.919091  Biso 1.000000     H
    H   1.0     0.976164     0.986561     0.896850  Biso 1.000000     H
    H   1.0     0.078311     0.170131     0.874368  Biso 1.000000     H
    H   1.0     0.313608     0.238404     0.935794  Biso 1.000000     H
    H   1.0     0.289914     0.565673     0.956503  Biso 1.000000     H
    H   1.0     0.057848     0.483497     0.897001  Biso 1.000000     H
    H   1.0     0.505853     0.382550    -0.010604  Biso 1.000000     H
    H   1.0     0.091156     0.689949     0.832543  Biso 1.000000     H
    H   1.0    -0.002199     0.651609     0.630873  Biso 1.000000     H
    H   1.0     0.021830     0.674203     0.449369  Biso 1.000000     H
    H   1.0     0.409564     0.874189     0.603130  Biso 1.000000     H
    H   1.0     0.500392     0.918396     0.805638  Biso 1.000000     H
    H   1.0     0.476616     0.896039     0.986579  Biso 1.000000     H
    H   1.0     0.578367     0.877990     0.170287  Biso 1.000000     H
    H   1.0     0.813669     0.940105     0.238607  Biso 1.000000     H
    H   1.0     0.789880     0.953381     0.565589  Biso 1.000000     H
    H   1.0     0.557766     0.893698     0.483375  Biso 1.000000     H
    H   1.0     0.000000    -0.007831     0.382656  Biso 1.000000     H
    H   1.0     0.408730     0.167428     0.310571  Biso 1.000000     H
    H   1.0     0.501821     0.369147     0.349586  Biso 1.000000     H
    H   1.0     0.477719     0.550653     0.327008  Biso 1.000000     H
    H   1.0     0.090461     0.396877     0.125776  Biso 1.000000     H
    H   1.0    -0.000091     0.194399     0.080983  Biso 1.000000     H
    H   1.0     0.023753     0.013409     0.103334  Biso 1.000000     H
    H   1.0     0.921633     0.829828     0.125692  Biso 1.000000     H
    H   1.0     0.686337     0.761548     0.064201  Biso 1.000000     H
    H   1.0     0.710040     0.434279     0.043348  Biso 1.000000     H
    H   1.0     0.942111     0.516465     0.102923  Biso 1.000000     H
    H   1.0     0.494094     0.617396     0.000000  Biso 1.000000     H
    C   1.0     0.718139     0.209527     0.079448  Biso 1.000000     C
    C   1.0     0.819394     0.260816     0.173682  Biso 1.000000     C
    C   1.0     0.808771     0.250096     0.277999  Biso 1.000000     C
    C   1.0     0.912106     0.299934     0.375426  Biso 1.000000     C
    C   1.0     0.899241     0.287703     0.475890  Biso 1.000000     C
    C   1.0     0.781454     0.225896     0.484312  Biso 1.000000     C
    C   1.0     0.679490     0.175349     0.390397  Biso 1.000000     C
    C   1.0     0.690400     0.185420     0.286050  Biso 1.000000     C
    C   1.0     0.588119     0.133132     0.188327  Biso 1.000000     C
    C   1.0     0.601333     0.145197     0.087998  Biso 1.000000     C
    C   1.0     0.731622     0.218153     0.970169  Biso 1.000000     C
    C   1.0     0.768658     0.217823     0.593975  Biso 1.000000     C
    C   1.0     0.370247     0.104156     0.742738  Biso 1.000000     C
    C   1.0     0.239366     0.069925     0.703904  Biso 1.000000     C
    C   1.0     0.174894     0.047658     0.591049  Biso 1.000000     C
    C   1.0     0.251295     0.061719     0.522864  Biso 1.000000     C
    C   1.0     0.381733     0.095499     0.567994  Biso 1.000000     C
    C   1.0     0.037518     0.012600     0.552722  Biso 1.000000     C
    C   1.0     0.781644     0.920580     0.790694  Biso 1.000000     C
    C   1.0     0.680584     0.826368     0.738860  Biso 1.000000     C
    C   1.0     0.691292     0.722017     0.749303  Biso 1.000000     C
    C   1.0     0.588185     0.624585     0.698847  Biso 1.000000     C
    C   1.0     0.601094     0.524104     0.710979  Biso 1.000000     C
    C   1.0     0.718693     0.515687     0.773307  Biso 1.000000     C
    C   1.0     0.820472     0.609592     0.824330  Biso 1.000000     C
    C   1.0     0.809480     0.713953     0.814468  Biso 1.000000     C
    C   1.0     0.911567     0.811650     0.867298  Biso 1.000000     C
    C   1.0     0.898299     0.912003     0.855390  Biso 1.000000     C
    C   1.0     0.768187     0.029845     0.782173  Biso 1.000000     C
    C   1.0     0.731416     0.406048     0.781673  Biso 1.000000     C
    C   1.0     0.129679     0.257188     0.893686  Biso 1.000000     C
    C   1.0     0.260549     0.296002     0.927556  Biso 1.000000     C
    C   1.0     0.325041     0.408931     0.951602  Biso 1.000000     C
    C   1.0     0.248663     0.477187     0.939586  Biso 1.000000     C
    C   1.0     0.118234     0.432062     0.906020  Biso 1.000000     C
    C   1.0     0.462417     0.447240     0.986296  Biso 1.000000     C
    C   1.0     0.281812     0.790497     0.920590  Biso 1.000000     C
    C   1.0     0.180594     0.739090     0.826360  Biso 1.000000     C
    C   1.0     0.191219     0.749759     0.722035  Biso 1.000000     C
    C   1.0     0.087940     0.699761     0.624603  Biso 1.000000     C
    C   1.0     0.100795     0.711980     0.524133  Biso 1.000000     C
    C   1.0     0.218534     0.773901     0.515710  Biso 1.000000     C
    C   1.0     0.320472     0.824522     0.609625  Biso 1.000000     C
    C   1.0     0.309572     0.814464     0.713975  Biso 1.000000     C
    C   1.0     0.411803     0.866896     0.811695  Biso 1.000000     C
    C   1.0     0.398588     0.854880     0.912031  Biso 1.000000     C
    C   1.0     0.268320     0.781901     0.029870  Biso 1.000000     C
    C   1.0     0.231314     0.782056     0.406055  Biso 1.000000     C
    C   1.0     0.629706     0.895818     0.257290  Biso 1.000000     C
    C   1.0     0.760585     0.929992     0.296121  Biso 1.000000     C
    C   1.0     0.825055     0.952129     0.408970  Biso 1.000000     C
    C   1.0     0.748656     0.938011     0.477154  Biso 1.000000     C
    C   1.0     0.618220     0.904290     0.432028  Biso 1.000000     C
    C   1.0     0.962430     0.987158     0.447294  Biso 1.000000     C
    C   1.0     0.218297     0.079410     0.209427  Biso 1.000000     C
    C   1.0     0.319364     0.173627     0.261222  Biso 1.000000     C
    C   1.0     0.308688     0.277966     0.250657  Biso 1.000000     C
    C   1.0     0.411788     0.375404     0.301107  Biso 1.000000     C
    C   1.0     0.398895     0.475875     0.288898  Biso 1.000000     C
    C   1.0     0.281282     0.484289     0.226597  Biso 1.000000     C
    C   1.0     0.179496     0.390378     0.175614  Biso 1.000000     C
    C   1.0     0.190459     0.286022     0.185573  Biso 1.000000     C
    C   1.0     0.088383     0.188316     0.132745  Biso 1.000000     C
    C   1.0     0.101627     0.087974     0.144748  Biso 1.000000     C
    C   1.0     0.231764     0.970148     0.217943  Biso 1.000000     C
    C   1.0     0.268552     0.593934     0.218268  Biso 1.000000     C
    C   1.0     0.870271     0.742770     0.106330  Biso 1.000000     C
    C   1.0     0.739399     0.703951     0.072424  Biso 1.000000     C
    C   1.0     0.674910     0.591020     0.048321  Biso 1.000000     C
    C   1.0     0.751290     0.522766     0.060317  Biso 1.000000     C
    C   1.0     0.881720     0.567895     0.093921  Biso 1.000000     C
    C   1.0     0.537533     0.552708     0.013611  Biso 1.000000     C
    N   1.0     0.442710     0.117227     0.676877  Biso 1.000000     N
    N   1.0     0.057242     0.323126     0.882657  Biso 1.000000     N
    N   1.0     0.557244     0.882684     0.323152  Biso 1.000000     N
    N   1.0     0.942709     0.676832     0.117346  Biso 1.000000     N
    O   1.0     0.630496     0.181773     0.887574  Biso 1.000000     O
    O   1.0     0.842490     0.259606     0.963763  Biso 1.000000     O
    O   1.0     0.657525     0.178016     0.600616  Biso 1.000000     O
    O   1.0     0.869977     0.253146     0.676057  Biso 1.000000     O
    O   1.0     0.869322     0.112407     0.818524  Biso 1.000000     O
    O   1.0     0.657324     0.036289     0.740723  Biso 1.000000     O
    O   1.0     0.842528     0.399402     0.821730  Biso 1.000000     O
    O   1.0     0.630049     0.324024     0.746578  Biso 1.000000     O
    O   1.0     0.369441     0.818282     0.112467  Biso 1.000000     O
    O   1.0     0.157450     0.740440     0.036270  Biso 1.000000     O
    O   1.0     0.342445     0.821900     0.399418  Biso 1.000000     O
    O   1.0     0.129989     0.746788     0.323978  Biso 1.000000     O
    O   1.0     0.130625     0.887590     0.181558  Biso 1.000000     O
    O   1.0     0.342635     0.963715     0.259404  Biso 1.000000     O
    O   1.0     0.157444     0.600598     0.178249  Biso 1.000000     O
    O   1.0     0.369908     0.675967     0.253400  Biso 1.000000     O
   Co   1.0     0.641106     0.179956     0.743261  Biso 1.000000    Co
   Co   1.0     0.858818     0.256755     0.820102  Biso 1.000000    Co
   Co   1.0     0.358853     0.820043     0.256780  Biso 1.000000    Co
   Co   1.0     0.141140     0.743244     0.179929  Biso 1.000000    Co
