#======================================================================

# CRYSTAL DATA

#----------------------------------------------------------------------

data_VESTA_phase_1


_pd_phase_name                         MOF
_cell_length_a                         14.57500
_cell_length_b                         14.70000
_cell_length_c                         26.01300
_cell_angle_alpha                      90.15000
_cell_angle_beta                       90.40800
_cell_angle_gamma                      90.18800
_symmetry_space_group_name_H-M         "P 1"
_symmetry_Int_Tables_number            1

loop_
_symmetry_equiv_pos_as_xyz
   "x, y, z"

loop_
   _atom_site_label
   _atom_site_occupancy
   _atom_site_fract_x
   _atom_site_fract_y
   _atom_site_fract_z
   _atom_site_adp_type
   _atom_site_B_iso_or_equiv
   _atom_site_type_symbol
    H   1.0     0.736505     0.948921     0.535911  Biso 1.000000     H
    H   1.0     0.750007     0.828716     0.468154  Biso 1.000000     H
    H   1.0     0.715552     0.753949     0.650796  Biso 1.000000     H
    H   1.0     0.281268     0.620146     0.242952  Biso 1.000000     H
    H   1.0     0.423392     0.655927     0.194147  Biso 1.000000     H
    H   1.0     0.432790     0.528331     0.368523  Biso 1.000000     H
    H   1.0     0.766619     0.426088     0.311220  Biso 1.000000     H
    H   1.0     0.895188     0.326455     0.281546  Biso 1.000000     H
    H   1.0     0.043933     0.329613     0.332240  Biso 1.000000     H
    H   1.0     0.053540     0.422712     0.412161  Biso 1.000000     H
    H   1.0     0.914595     0.513104     0.439198  Biso 1.000000     H
    H   1.0     0.758723     0.049332     0.036413  Biso 1.000000     H
    H   1.0     0.745465     0.167789     0.967988  Biso 1.000000     H
    H   1.0     0.781086     0.246967     0.150474  Biso 1.000000     H
    H   1.0     0.217221     0.379495     0.743647  Biso 1.000000     H
    H   1.0     0.074141     0.345551     0.694037  Biso 1.000000     H
    H   1.0     0.068019     0.465124     0.870548  Biso 1.000000     H
    H   1.0     0.739187     0.571127     0.811525  Biso 1.000000     H
    H   1.0     0.613984     0.674544     0.780254  Biso 1.000000     H
    H   1.0     0.464156     0.674825     0.828204  Biso 1.000000     H
    H   1.0     0.448853     0.580095     0.906925  Biso 1.000000     H
    H   1.0     0.584751     0.486321     0.936088  Biso 1.000000     H
    H   1.0     0.262761     0.446002     0.964206  Biso 1.000000     H
    H   1.0     0.248792     0.327176     0.032425  Biso 1.000000     H
    H   1.0     0.285548     0.248744     0.850202  Biso 1.000000     H
    H   1.0     0.716783     0.119192     0.256417  Biso 1.000000     H
    H   1.0     0.574566     0.153803     0.305482  Biso 1.000000     H
    H   1.0     0.565004     0.027558     0.130382  Biso 1.000000     H
    H   1.0     0.230044     0.925902     0.188636  Biso 1.000000     H
    H   1.0     0.102122     0.824605     0.217902  Biso 1.000000     H
    H   1.0     0.953381     0.825965     0.167153  Biso 1.000000     H
    H   1.0     0.943237     0.919294     0.087619  Biso 1.000000     H
    H   1.0     0.081730     0.011109     0.060868  Biso 1.000000     H
    H   1.0     0.235727     0.549875     0.462743  Biso 1.000000     H
    H   1.0     0.248421     0.668555     0.531502  Biso 1.000000     H
    H   1.0     0.216623     0.747311     0.349022  Biso 1.000000     H
    H   1.0     0.782499     0.878723     0.756278  Biso 1.000000     H
    H   1.0     0.925239     0.841244     0.805039  Biso 1.000000     H
    H   1.0     0.932425     0.970062     0.630966  Biso 1.000000     H
    H   1.0     0.265981     0.070154     0.689376  Biso 1.000000     H
    H   1.0     0.393793     0.171951     0.719782  Biso 1.000000     H
    H   1.0     0.542232     0.171005     0.670093  Biso 1.000000     H
    H   1.0     0.552574     0.077458     0.590468  Biso 1.000000     H
    H   1.0     0.414308     0.984951     0.562541  Biso 1.000000     H
    H   1.0     0.261383     0.051284     0.463854  Biso 1.000000     H
    H   1.0     0.246456     0.171370     0.531534  Biso 1.000000     H
    H   1.0     0.283824     0.246302     0.349097  Biso 1.000000     H
    H   1.0     0.717068     0.377811     0.756491  Biso 1.000000     H
    H   1.0     0.575188     0.339957     0.805092  Biso 1.000000     H
    H   1.0     0.564739     0.472628     0.631953  Biso 1.000000     H
    H   1.0     0.233723     0.574784     0.688300  Biso 1.000000     H
    H   1.0     0.105649     0.674402     0.718760  Biso 1.000000     H
    H   1.0     0.955900     0.670857     0.669079  Biso 1.000000     H
    H   1.0     0.944496     0.577275     0.589410  Biso 1.000000     H
    H   1.0     0.083037     0.486869     0.561538  Biso 1.000000     H
    H   1.0     0.242005     0.946400     0.963390  Biso 1.000000     H
    H   1.0     0.255235     0.828122     0.031891  Biso 1.000000     H
    H   1.0     0.218740     0.748545     0.849483  Biso 1.000000     H
    H   1.0     0.782186     0.619167     0.255936  Biso 1.000000     H
    H   1.0     0.925632     0.655706     0.304773  Biso 1.000000     H
    H   1.0     0.930726     0.529373     0.129700  Biso 1.000000     H
    H   1.0     0.259108     0.424520     0.188364  Biso 1.000000     H
    H   1.0     0.384044     0.321288     0.220294  Biso 1.000000     H
    H   1.0     0.534680     0.321451     0.173245  Biso 1.000000     H
    H   1.0     0.551423     0.416620     0.094803  Biso 1.000000     H
    H   1.0     0.415962     0.510424     0.064985  Biso 1.000000     H
    H   1.0     0.736803     0.549723     0.035975  Biso 1.000000     H
    H   1.0     0.751906     0.669072     0.968158  Biso 1.000000     H
    H   1.0     0.713576     0.746068     0.150447  Biso 1.000000     H
    H   1.0     0.283011     0.878140     0.743307  Biso 1.000000     H
    H   1.0     0.425049     0.843398     0.694145  Biso 1.000000     H
    H   1.0     0.435124     0.967628     0.869709  Biso 1.000000     H
    H   1.0     0.765804     0.071749     0.812056  Biso 1.000000     H
    H   1.0     0.892136     0.174387     0.781871  Biso 1.000000     H
    H   1.0     0.042452     0.173101     0.830860  Biso 1.000000     H
    H   1.0     0.056523     0.077889     0.909495  Biso 1.000000     H
    H   1.0     0.919489     0.984880     0.937484  Biso 1.000000     H
    H   1.0     0.759771     0.449555     0.536849  Biso 1.000000     H
    H   1.0     0.747002     0.329762     0.468679  Biso 1.000000     H
    H   1.0     0.781056     0.253946     0.651455  Biso 1.000000     H
    H   1.0     0.217498     0.118443     0.243295  Biso 1.000000     H
    H   1.0     0.074677     0.154821     0.194298  Biso 1.000000     H
    H   1.0     0.067745     0.030367     0.369393  Biso 1.000000     H
    H   1.0     0.738735     0.927207     0.311449  Biso 1.000000     H
    H   1.0     0.612499     0.824454     0.279668  Biso 1.000000     H
    H   1.0     0.461906     0.825961     0.326908  Biso 1.000000     H
    H   1.0     0.446884     0.921494     0.405515  Biso 1.000000     H
    H   1.0     0.583726     0.014720     0.435228  Biso 1.000000     H
    C   1.0     0.735407     0.877022     0.545777  Biso 1.000000     C
    C   1.0     0.743286     0.809928     0.508399  Biso 1.000000     C
    C   1.0     0.743678     0.718128     0.522431  Biso 1.000000     C
    C   1.0     0.733533     0.696443     0.574655  Biso 1.000000     C
    C   1.0     0.725531     0.767408     0.609985  Biso 1.000000     C
    C   1.0     0.757557     0.645577     0.482327  Biso 1.000000     C
    C   1.0     0.724224     0.600944     0.594849  Biso 1.000000     C
    C   1.0     0.348926     0.608249     0.259688  Biso 1.000000     C
    C   1.0     0.428389     0.627946     0.232810  Biso 1.000000     C
    C   1.0     0.514402     0.611363     0.255185  Biso 1.000000     C
    C   1.0     0.516373     0.576263     0.305474  Biso 1.000000     C
    C   1.0     0.433566     0.557193     0.329952  Biso 1.000000     C
    C   1.0     0.599719     0.628173     0.223747  Biso 1.000000     C
    C   1.0     0.603428     0.562615     0.334886  Biso 1.000000     C
    C   1.0     0.831020     0.422229     0.332630  Biso 1.000000     C
    C   1.0     0.903178     0.368158     0.316105  Biso 1.000000     C
    C   1.0     0.984721     0.368840     0.344623  Biso 1.000000     C
    C   1.0     0.990518     0.421070     0.389442  Biso 1.000000     C
    C   1.0     0.915165     0.472114     0.404234  Biso 1.000000     C
    C   1.0     0.760122     0.121436     0.045950  Biso 1.000000     C
    C   1.0     0.752366     0.187570     0.008187  Biso 1.000000     C
    C   1.0     0.752546     0.279726     0.021743  Biso 1.000000     C
    C   1.0     0.762704     0.302745     0.073939  Biso 1.000000     C
    C   1.0     0.770768     0.232562     0.109670  Biso 1.000000     C
    C   1.0     0.740168     0.351087     0.980948  Biso 1.000000     C
    C   1.0     0.771932     0.398731     0.093861  Biso 1.000000     C
    C   1.0     0.149871     0.390286     0.760506  Biso 1.000000     C
    C   1.0     0.069908     0.371664     0.733186  Biso 1.000000     C
    C   1.0    -0.015679     0.386882     0.755752  Biso 1.000000     C
    C   1.0    -0.016738     0.419551     0.806655  Biso 1.000000     C
    C   1.0     0.066522     0.437740     0.831563  Biso 1.000000     C
    C   1.0     0.898432     0.370799     0.724026  Biso 1.000000     C
    C   1.0     0.896636     0.432053     0.835989  Biso 1.000000     C
    C   1.0     0.674243     0.576458     0.831794  Biso 1.000000     C
    C   1.0     0.604092     0.632583     0.814361  Biso 1.000000     C
    C   1.0     0.521680     0.633622     0.841396  Biso 1.000000     C
    C   1.0     0.512902     0.580841     0.885632  Biso 1.000000     C
    C   1.0     0.586446     0.527787     0.901443  Biso 1.000000     C
    C   1.0     0.264136     0.373896     0.954669  Biso 1.000000     C
    C   1.0     0.256004     0.307648     0.992271  Biso 1.000000     C
    C   1.0     0.256063     0.215538     0.978607  Biso 1.000000     C
    C   1.0     0.266825     0.192528     0.926539  Biso 1.000000     C
    C   1.0     0.275135     0.262864     0.890949  Biso 1.000000     C
    C   1.0     0.242667     0.144485     0.019326  Biso 1.000000     C
    C   1.0     0.276355     0.096678     0.906539  Biso 1.000000     C
    C   1.0     0.649032     0.107055     0.239702  Biso 1.000000     C
    C   1.0     0.569642     0.126032     0.266682  Biso 1.000000     C
    C   1.0     0.483660     0.109054     0.244199  Biso 1.000000     C
    C   1.0     0.481393     0.074435     0.193699  Biso 1.000000     C
    C   1.0     0.564158     0.056109     0.169107  Biso 1.000000     C
    C   1.0     0.398811     0.125340     0.275923  Biso 1.000000     C
    C   1.0     0.394067     0.060909     0.164320  Biso 1.000000     C
    C   1.0     0.165723     0.921196     0.167168  Biso 1.000000     C
    C   1.0     0.093872     0.866194     0.183464  Biso 1.000000     C
    C   1.0     0.012374     0.865926     0.154918  Biso 1.000000     C
    C   1.0     0.006315     0.918159     0.110276  Biso 1.000000     C
    C   1.0     0.081407    -0.029926     0.095690  Biso 1.000000     C
    C   1.0     0.234894     0.621961     0.453374  Biso 1.000000     C
    C   1.0     0.242289     0.688168     0.491316  Biso 1.000000     C
    C   1.0     0.242845     0.780284     0.477969  Biso 1.000000     C
    C   1.0     0.233476     0.803300     0.425815  Biso 1.000000     C
    C   1.0     0.226018     0.733057     0.389851  Biso 1.000000     C
    C   1.0     0.255623     0.851523     0.518984  Biso 1.000000     C
    C   1.0     0.224553     0.899317     0.406186  Biso 1.000000     C
    C   1.0     0.849942     0.890146     0.739612  Biso 1.000000     C
    C   1.0     0.929721     0.869471     0.766444  Biso 1.000000     C
    C   1.0     0.000000     0.885460     0.744146  Biso 1.000000     C
    C   1.0     0.000000     0.920728     0.693876  Biso 1.000000     C
    C   1.0     0.933707     0.940873     0.669462  Biso 1.000000     C
    C   1.0     0.101018     0.867976     0.775849  Biso 1.000000     C
    C   1.0     0.103466     0.933597     0.664548  Biso 1.000000     C
    C   1.0     0.330271     0.074919     0.668406  Biso 1.000000     C
    C   1.0     0.401994     0.130178     0.685348  Biso 1.000000     C
    C   1.0     0.483411     0.130668     0.657374  Biso 1.000000     C
    C   1.0     0.489550     0.078297     0.612691  Biso 1.000000     C
    C   1.0     0.414600     0.000000     0.597459  Biso 1.000000     C
    C   1.0     0.262563     0.123194     0.453998  Biso 1.000000     C
    C   1.0     0.253818     0.190245     0.491339  Biso 1.000000     C
    C   1.0     0.253397     0.282048     0.477316  Biso 1.000000     C
    C   1.0     0.264228     0.303768     0.425134  Biso 1.000000     C
    C   1.0     0.273234     0.232858     0.389855  Biso 1.000000     C
    C   1.0     0.238929     0.354593     0.517383  Biso 1.000000     C
    C   1.0     0.273265     0.399333     0.405021  Biso 1.000000     C
    C   1.0     0.649279     0.389956     0.739978  Biso 1.000000     C
    C   1.0     0.569988     0.369119     0.766714  Biso 1.000000     C
    C   1.0     0.483828     0.386088     0.744598  Biso 1.000000     C
    C   1.0     0.481413     0.422651     0.694630  Biso 1.000000     C
    C   1.0     0.564098     0.442757     0.670279  Biso 1.000000     C
    C   1.0     0.398971     0.368127     0.776199  Biso 1.000000     C
    C   1.0     0.394171     0.436696     0.665353  Biso 1.000000     C
    C   1.0     0.168815     0.578495     0.667366  Biso 1.000000     C
    C   1.0     0.096988     0.632564     0.684298  Biso 1.000000     C
    C   1.0     0.014847     0.631615     0.656330  Biso 1.000000     C
    C   1.0     0.008056     0.579163     0.611635  Biso 1.000000     C
    C   1.0     0.083096     0.528108     0.596414  Biso 1.000000     C
    C   1.0     0.240397     0.874281     0.953900  Biso 1.000000     C
    C   1.0     0.248150     0.808254     0.991716  Biso 1.000000     C
    C   1.0     0.247724     0.716089     0.978207  Biso 1.000000     C
    C   1.0     0.237318     0.692947     0.926055  Biso 1.000000     C
    C   1.0     0.229243     0.763010     0.890266  Biso 1.000000     C
    C   1.0     0.259958     0.644744     0.018994  Biso 1.000000     C
    C   1.0     0.228016     0.596909     0.906313  Biso 1.000000     C
    C   1.0     0.849504     0.608018     0.239097  Biso 1.000000     C
    C   1.0     0.929578     0.628112     0.265939  Biso 1.000000     C
    C   1.0     0.000000     0.612266     0.243314  Biso 1.000000     C
    C   1.0     0.000000     0.577664     0.192813  Biso 1.000000     C
    C   1.0     0.932585     0.558154     0.168369  Biso 1.000000     C
    C   1.0     0.100717     0.628804     0.275021  Biso 1.000000     C
    C   1.0     0.102543     0.564641     0.163464  Biso 1.000000     C
    C   1.0     0.324526     0.419527     0.168541  Biso 1.000000     C
    C   1.0     0.394447     0.363460     0.186322  Biso 1.000000     C
    C   1.0     0.477377     0.362689     0.159783  Biso 1.000000     C
    C   1.0     0.486955     0.415724     0.115700  Biso 1.000000     C
    C   1.0     0.413641     0.468762     0.099543  Biso 1.000000     C
    C   1.0     0.735531     0.621740     0.045734  Biso 1.000000     C
    C   1.0     0.744305     0.688323     0.008334  Biso 1.000000     C
    C   1.0     0.744537     0.780310     0.022258  Biso 1.000000     C
    C   1.0     0.733240     0.802792     0.074356  Biso 1.000000     C
    C   1.0     0.724301     0.732205     0.109703  Biso 1.000000     C
    C   1.0     0.759281     0.852034     0.982007  Biso 1.000000     C
    C   1.0     0.724129     0.898505     0.094539  Biso 1.000000     C
    C   1.0     0.350801     0.889669     0.760102  Biso 1.000000     C
    C   1.0     0.430113     0.870607     0.733067  Biso 1.000000     C
    C   1.0     0.516158     0.886829     0.755648  Biso 1.000000     C
    C   1.0     0.518524     0.920830     0.806277  Biso 1.000000     C
    C   1.0     0.435856     0.939390     0.830910  Biso 1.000000     C
    C   1.0     0.601116     0.870661     0.723983  Biso 1.000000     C
    C   1.0     0.605874     0.933772     0.835696  Biso 1.000000     C
    C   1.0     0.830910     0.076403     0.832766  Biso 1.000000     C
    C   1.0     0.901775     0.132165     0.815956  Biso 1.000000     C
    C   1.0     0.984306     0.132361     0.843547  Biso 1.000000     C
    C   1.0     0.992451     0.079221     0.887742  Biso 1.000000     C
    C   1.0     0.918246     0.000000     0.902912  Biso 1.000000     C
    C   1.0     0.761008     0.377598     0.546537  Biso 1.000000     C
    C   1.0     0.753570     0.310758     0.508942  Biso 1.000000     C
    C   1.0     0.753537     0.218875     0.522782  Biso 1.000000     C
    C   1.0     0.763531     0.196794     0.575017  Biso 1.000000     C
    C   1.0     0.771061     0.267558     0.610593  Biso 1.000000     C
    C   1.0     0.740311     0.146818     0.482238  Biso 1.000000     C
    C   1.0     0.772961     0.101135     0.594941  Biso 1.000000     C
    C   1.0     0.150073     0.107609     0.260093  Biso 1.000000     C
    C   1.0     0.070271     0.127656     0.233140  Biso 1.000000     C
    C   1.0    -0.015403     0.112307     0.255636  Biso 1.000000     C
    C   1.0    -0.016706     0.078342     0.306176  Biso 1.000000     C
    C   1.0     0.066391     0.058732     0.330704  Biso 1.000000     C
    C   1.0     0.898926     0.129120     0.223982  Biso 1.000000     C
    C   1.0     0.896736     0.066011     0.335632  Biso 1.000000     C
    C   1.0     0.673390     0.922714     0.331398  Biso 1.000000     C
    C   1.0     0.602674     0.866944     0.313675  Biso 1.000000     C
    C   1.0     0.519843     0.866875     0.340317  Biso 1.000000     C
    C   1.0     0.511206     0.920235     0.384477  Biso 1.000000     C
    C   1.0     0.585275    -0.027088     0.400590  Biso 1.000000     C
    N   1.0     0.726825     0.855817     0.596122  Biso 1.000000     N
    N   1.0     0.351210     0.572456     0.307668  Biso 1.000000     N
    N   1.0     0.836739     0.473725     0.375872  Biso 1.000000     N
    N   1.0     0.769173     0.143821     0.096241  Biso 1.000000     N
    N   1.0     0.148454     0.423877     0.809095  Biso 1.000000     N
    N   1.0     0.665757     0.524672     0.874568  Biso 1.000000     N
    N   1.0     0.273359     0.351528     0.904472  Biso 1.000000     N
    N   1.0     0.646493     0.071560     0.191560  Biso 1.000000     N
    N   1.0     0.159744    -0.027381     0.124098  Biso 1.000000     N
    N   1.0     0.227052     0.644340     0.403100  Biso 1.000000     N
    N   1.0     0.851665     0.926379     0.691750  Biso 1.000000     N
    N   1.0     0.336288     0.000000     0.625264  Biso 1.000000     N
    N   1.0     0.272086     0.144460     0.403718  Biso 1.000000     N
    N   1.0     0.646589     0.427219     0.692365  Biso 1.000000     N
    N   1.0     0.162080     0.526768     0.624267  Biso 1.000000     N
    N   1.0     0.231084     0.851754     0.903646  Biso 1.000000     N
    N   1.0     0.850818     0.572508     0.190961  Biso 1.000000     N
    N   1.0     0.333785     0.471567     0.125920  Biso 1.000000     N
    N   1.0     0.725904     0.643635     0.095974  Biso 1.000000     N
    N   1.0     0.353460     0.924615     0.808377  Biso 1.000000     N
    N   1.0     0.838850     0.000000     0.875448  Biso 1.000000     N
    N   1.0     0.769486     0.356020     0.596881  Biso 1.000000     N
    N   1.0     0.148386     0.072593     0.308246  Biso 1.000000     N
    N   1.0     0.665041    -0.024884     0.374080  Biso 1.000000     N
    O   1.0     0.726719     0.665625     0.436747  Biso 1.000000     O
    O   1.0     0.797327     0.573032     0.493347  Biso 1.000000     O
    O   1.0     0.788489     0.577035     0.626953  Biso 1.000000     O
    O   1.0     0.656465     0.554424     0.582248  Biso 1.000000     O
    O   1.0     0.630609     0.553699     0.203909  Biso 1.000000     O
    O   1.0     0.628615     0.706937     0.217715  Biso 1.000000     O
    O   1.0     0.677212     0.601428     0.320161  Biso 1.000000     O
    O   1.0     0.602149     0.515354     0.376210  Biso 1.000000     O
    O   1.0     0.769421     0.328380     0.935612  Biso 1.000000     O
    O   1.0     0.703389     0.425651    -0.008947  Biso 1.000000     O
    O   1.0     0.707163     0.423277     0.125060  Biso 1.000000     O
    O   1.0     0.839877     0.445009     0.082042  Biso 1.000000     O
    O   1.0     0.867233     0.445380     0.704453  Biso 1.000000     O
    O   1.0     0.869435     0.292037     0.717717  Biso 1.000000     O
    O   1.0     0.822371     0.394800     0.820140  Biso 1.000000     O
    O   1.0     0.898612     0.477301     0.878186  Biso 1.000000     O
    O   1.0     0.269320     0.168029     0.065229  Biso 1.000000     O
    O   1.0     0.207162     0.069074     0.000000  Biso 1.000000     O
    O   1.0     0.210975     0.071223     0.875362  Biso 1.000000     O
    O   1.0     0.345109     0.051522     0.918230  Biso 1.000000     O
    O   1.0     0.367678     0.050845     0.295626  Biso 1.000000     O
    O   1.0     0.370589     0.204085     0.282440  Biso 1.000000     O
    O   1.0     0.320299     0.098079     0.180094  Biso 1.000000     O
    O   1.0     0.394815     0.015601     0.122184  Biso 1.000000     O
    O   1.0     0.226913     0.828576     0.564344  Biso 1.000000     O
    O   1.0     0.292599     0.926222     0.509060  Biso 1.000000     O
    O   1.0     0.289777     0.924234     0.375331  Biso 1.000000     O
    O   1.0     0.156401     0.945027     0.417858  Biso 1.000000     O
    O   1.0     0.133160     0.942307     0.795738  Biso 1.000000     O
    O   1.0     0.128805     0.789043     0.782184  Biso 1.000000     O
    O   1.0     0.177073     0.894947     0.679817  Biso 1.000000     O
    O   1.0     0.102035     0.980091     0.622914  Biso 1.000000     O
    O   1.0     0.270228     0.334827     0.562911  Biso 1.000000     O
    O   1.0     0.198457     0.426726     0.506390  Biso 1.000000     O
    O   1.0     0.209283     0.423000     0.372689  Biso 1.000000     O
    O   1.0     0.340546     0.446219     0.417944  Biso 1.000000     O
    O   1.0     0.367502     0.442174     0.796226  Biso 1.000000     O
    O   1.0     0.371157     0.288997     0.782265  Biso 1.000000     O
    O   1.0     0.320399     0.397760     0.679950  Biso 1.000000     O
    O   1.0     0.395217     0.484429     0.624179  Biso 1.000000     O
    O   1.0     0.230448     0.667452     0.064267  Biso 1.000000     O
    O   1.0     0.296807     0.570204     0.000000  Biso 1.000000     O
    O   1.0     0.293045     0.571936     0.875412  Biso 1.000000     O
    O   1.0     0.159839     0.550849     0.917986  Biso 1.000000     O
    O   1.0     0.132621     0.553935     0.293902  Biso 1.000000     O
    O   1.0     0.128910     0.707598     0.282177  Biso 1.000000     O
    O   1.0     0.175956     0.604861     0.178260  Biso 1.000000     O
    O   1.0     0.101493     0.516192     0.122415  Biso 1.000000     O
    O   1.0     0.731133     0.829988     0.936076  Biso 1.000000     O
    O   1.0     0.797097     0.925957    -0.006877  Biso 1.000000     O
    O   1.0     0.788518     0.922795     0.126632  Biso 1.000000     O
    O   1.0     0.656580     0.944848     0.082019  Biso 1.000000     O
    O   1.0     0.632291     0.945343     0.704518  Biso 1.000000     O
    O   1.0     0.629377     0.791947     0.717488  Biso 1.000000     O
    O   1.0     0.679227     0.895200     0.820341  Biso 1.000000     O
    O   1.0     0.605429     0.980256     0.877447  Biso 1.000000     O
    O   1.0     0.772840     0.167866     0.437369  Biso 1.000000     O
    O   1.0     0.699640     0.074150     0.492092  Biso 1.000000     O
    O   1.0     0.709389     0.077027     0.627030  Biso 1.000000     O
    O   1.0     0.839921     0.054573     0.582152  Biso 1.000000     O
    O   1.0     0.866921     0.054511     0.204342  Biso 1.000000     O
    O   1.0     0.870886     0.207928     0.217605  Biso 1.000000     O
    O   1.0     0.823170     0.104984     0.320463  Biso 1.000000     O
    O   1.0     0.898123     0.019526     0.377248  Biso 1.000000     O
   Zn   1.0     0.734576     0.558470     0.393200  Biso 1.000000    Zn
   Zn   1.0     0.730954     0.952717     0.653036  Biso 1.000000    Zn
   Zn   1.0     0.765300     0.437369     0.893242  Biso 1.000000    Zn
   Zn   1.0     0.766307     0.047163     0.153024  Biso 1.000000    Zn
   Zn   1.0     0.261661     0.058055     0.106773  Biso 1.000000    Zn
   Zn   1.0     0.269403     0.448467     0.848248  Biso 1.000000    Zn
   Zn   1.0     0.234410     0.937677     0.606882  Biso 1.000000    Zn
   Zn   1.0     0.230916     0.547348     0.346512  Biso 1.000000    Zn
   Zn   1.0     0.263074     0.441349     0.606832  Biso 1.000000    Zn
   Zn   1.0     0.268958     0.047086     0.347107  Biso 1.000000    Zn
   Zn   1.0     0.234494     0.558727     0.106779  Biso 1.000000    Zn
   Zn   1.0     0.233784     0.948592     0.847020  Biso 1.000000    Zn
   Zn   1.0     0.738251     0.937704     0.893215  Biso 1.000000    Zn
   Zn   1.0     0.729982     0.546961     0.152622  Biso 1.000000    Zn
   Zn   1.0     0.765623     0.061927     0.393047  Biso 1.000000    Zn
   Zn   1.0     0.766087     0.452968     0.653406  Biso 1.000000    Zn
