#======================================================================

# CRYSTAL DATA

#----------------------------------------------------------------------

data_VESTA_phase_1


_pd_phase_name                         MOF
_cell_length_a                         13.44400
_cell_length_b                         14.20100
_cell_length_c                         19.04500
_cell_angle_alpha                      90.77400
_cell_angle_beta                       108.29400
_cell_angle_gamma                      93.38400
_symmetry_space_group_name_H-M         "P 1"
_symmetry_Int_Tables_number            1

loop_
_symmetry_equiv_pos_as_xyz
   "x, y, z"

loop_
   _atom_site_label
   _atom_site_occupancy
   _atom_site_fract_x
   _atom_site_fract_y
   _atom_site_fract_z
   _atom_site_adp_type
   _atom_site_B_iso_or_equiv
   _atom_site_type_symbol
    H   1.0     0.175221     0.434261     0.171104  Biso 1.000000     H
    H   1.0     0.875913     0.397286     0.011255  Biso 1.000000     H
    H   1.0     0.021675     0.321956     0.953199  Biso 1.000000     H
    H   1.0     0.191788     0.350511     0.943028  Biso 1.000000     H
    H   1.0     0.479876     0.222075     0.057311  Biso 1.000000     H
    H   1.0     0.276429     0.307264     0.178036  Biso 1.000000     H
    H   1.0     0.349929     0.163187     0.241788  Biso 1.000000     H
    H   1.0     0.606938     0.281269     0.179105  Biso 1.000000     H
    H   1.0     0.679499     0.204596     0.318448  Biso 1.000000     H
    H   1.0     0.204447     0.280002     0.844085  Biso 1.000000     H
    H   1.0     0.497515     0.243851     0.813528  Biso 1.000000     H
    H   1.0     0.528440     0.262109     0.963078  Biso 1.000000     H
    H   1.0     0.055660     0.445768     0.377680  Biso 1.000000     H
    H   1.0     0.104172     0.268058     0.214477  Biso 1.000000     H
    H   1.0     0.249697     0.232072     0.349781  Biso 1.000000     H
    H   1.0     0.276330     0.602467     0.592947  Biso 1.000000     H
    H   1.0     0.189842     0.680369     0.693336  Biso 1.000000     H
    H   1.0     0.161440     0.384529     0.704400  Biso 1.000000     H
    H   1.0     0.181720     0.478033     0.489899  Biso 1.000000     H
    H   1.0     0.247937     0.189277     0.458872  Biso 1.000000     H
    H   1.0     0.311374     0.308562     0.679586  Biso 1.000000     H
    H   1.0     0.382720     0.101223     0.514055  Biso 1.000000     H
    H   1.0     0.294126     0.155042     0.705790  Biso 1.000000     H
    H   1.0     0.371094     0.977360     0.711726  Biso 1.000000     H
    H   1.0     0.824740     0.565719     0.828864  Biso 1.000000     H
    H   1.0     0.124055     0.602699     0.988705  Biso 1.000000     H
    H   1.0     0.978300     0.678038     0.046762  Biso 1.000000     H
    H   1.0     0.808183     0.649480     0.056939  Biso 1.000000     H
    H   1.0     0.520094     0.777913     0.942656  Biso 1.000000     H
    H   1.0     0.723540     0.692724     0.821930  Biso 1.000000     H
    H   1.0     0.650034     0.836786     0.758169  Biso 1.000000     H
    H   1.0     0.393030     0.718721     0.820868  Biso 1.000000     H
    H   1.0     0.320463     0.795374     0.681519  Biso 1.000000     H
    H   1.0     0.795521     0.719979     0.155883  Biso 1.000000     H
    H   1.0     0.502453     0.756134     0.186437  Biso 1.000000     H
    H   1.0     0.471530     0.737885     0.036888  Biso 1.000000     H
    H   1.0     0.944304     0.554202     0.622285  Biso 1.000000     H
    H   1.0     0.895801     0.731911     0.785491  Biso 1.000000     H
    H   1.0     0.750283     0.767909     0.650188  Biso 1.000000     H
    H   1.0     0.723619     0.397508     0.407018  Biso 1.000000     H
    H   1.0     0.810105     0.319595     0.306631  Biso 1.000000     H
    H   1.0     0.838533     0.615434     0.295569  Biso 1.000000     H
    H   1.0     0.818248     0.521942     0.510069  Biso 1.000000     H
    H   1.0     0.752041     0.810700     0.541093  Biso 1.000000     H
    H   1.0     0.688598     0.691410     0.320381  Biso 1.000000     H
    H   1.0     0.617267     0.898756     0.485914  Biso 1.000000     H
    H   1.0     0.705844     0.844925     0.294173  Biso 1.000000     H
    H   1.0     0.628869     0.022606     0.288233  Biso 1.000000     H
    C   1.0     0.112398     0.413092     0.120901  Biso 1.000000     C
    C   1.0     0.959899     0.393098     0.035697  Biso 1.000000     C
    C   1.0     0.030502     0.355492     0.006546  Biso 1.000000     C
    C   1.0     0.222784     0.329648     0.059864  Biso 1.000000     C
    C   1.0     0.244266     0.322687     0.993030  Biso 1.000000     C
    C   1.0     0.337253     0.283730     0.992211  Biso 1.000000     C
    C   1.0     0.408383     0.253770     0.057605  Biso 1.000000     C
    C   1.0     0.385456     0.262914     0.123757  Biso 1.000000     C
    C   1.0     0.292781     0.300385     0.125843  Biso 1.000000     C
    C   1.0     0.429888     0.185554     0.245417  Biso 1.000000     C
    C   1.0     0.565818     0.244553     0.212636  Biso 1.000000     C
    C   1.0     0.600106     0.206579     0.281159  Biso 1.000000     C
    C   1.0     0.287716     0.272532     0.854183  Biso 1.000000     C
    C   1.0     0.439915     0.252366     0.841850  Biso 1.000000     C
    C   1.0     0.457128     0.260431     0.916439  Biso 1.000000     C
    C   1.0     0.088143     0.393558     0.350768  Biso 1.000000     C
    C   1.0     0.116079     0.300196     0.268677  Biso 1.000000     C
    C   1.0     0.187381     0.280228     0.334970  Biso 1.000000     C
    C   1.0     0.237714     0.569496     0.629571  Biso 1.000000     C
    C   1.0     0.195961     0.606999     0.680049  Biso 1.000000     C
    C   1.0     0.180960     0.454853     0.689407  Biso 1.000000     C
    C   1.0     0.243912     0.399545     0.588703  Biso 1.000000     C
    C   1.0     0.211443     0.411447     0.512241  Biso 1.000000     C
    C   1.0     0.213540     0.335028     0.465832  Biso 1.000000     C
    C   1.0     0.250932     0.249723     0.495179  Biso 1.000000     C
    C   1.0     0.287918     0.241352     0.571764  Biso 1.000000     C
    C   1.0     0.284482     0.315768     0.619620  Biso 1.000000     C
    C   1.0     0.367667     0.089075     0.565843  Biso 1.000000     C
    C   1.0     0.321655     0.116010     0.666824  Biso 1.000000     C
    C   1.0     0.360706     0.028941     0.669108  Biso 1.000000     C
    C   1.0     0.469654     0.694812     0.540156  Biso 1.000000     C
    C   1.0     0.486528     0.594356     0.519421  Biso 1.000000     C
    C   1.0     0.520644     0.527351     0.573731  Biso 1.000000     C
    C   1.0     0.533485     0.434034     0.554892  Biso 1.000000     C
    C   1.0     0.702823     0.433671     0.091599  Biso 1.000000     C
    C   1.0     0.598209     0.468425     0.043932  Biso 1.000000     C
    C   1.0     0.523982     0.496488     0.076471  Biso 1.000000     C
    C   1.0     0.427417     0.527203     0.033085  Biso 1.000000     C
    C   1.0     0.018757     0.674414     0.229408  Biso 1.000000     C
    C   1.0     0.097234     0.754125     0.271152  Biso 1.000000     C
    C   1.0     0.186114     0.777936     0.249940  Biso 1.000000     C
    C   1.0     0.262827     0.846481     0.289734  Biso 1.000000     C
    C   1.0     0.253246     0.893169     0.352377  Biso 1.000000     C
    C   1.0     0.162396     0.872534     0.371892  Biso 1.000000     C
    C   1.0     0.085396     0.804124     0.331692  Biso 1.000000     C
    C   1.0     0.343865     0.958771     0.399889  Biso 1.000000     C
    C   1.0     0.887566     0.586888     0.879066  Biso 1.000000     C
    C   1.0     0.040068     0.606885     0.964265  Biso 1.000000     C
    C   1.0     0.969469     0.644497     0.993416  Biso 1.000000     C
    C   1.0     0.777187     0.670342     0.940103  Biso 1.000000     C
    C   1.0     0.755705     0.677304     0.006936  Biso 1.000000     C
    C   1.0     0.662717     0.716260     0.007756  Biso 1.000000     C
    C   1.0     0.591587     0.746219     0.942361  Biso 1.000000     C
    C   1.0     0.614514     0.737074     0.876210  Biso 1.000000     C
    C   1.0     0.707188     0.699604     0.874124  Biso 1.000000     C
    C   1.0     0.570076     0.814420     0.754544  Biso 1.000000     C
    C   1.0     0.434148     0.755430     0.787333  Biso 1.000000     C
    C   1.0     0.399857     0.793394     0.718807  Biso 1.000000     C
    C   1.0     0.712252     0.727452     0.145783  Biso 1.000000     C
    C   1.0     0.560053     0.747620     0.158116  Biso 1.000000     C
    C   1.0     0.542841     0.739559     0.083527  Biso 1.000000     C
    C   1.0     0.911824     0.606411     0.649198  Biso 1.000000     C
    C   1.0     0.883893     0.699775     0.731291  Biso 1.000000     C
    C   1.0     0.812595     0.719748     0.664997  Biso 1.000000     C
    C   1.0     0.762241     0.430474     0.370396  Biso 1.000000     C
    C   1.0     0.803992     0.392967     0.319919  Biso 1.000000     C
    C   1.0     0.819008     0.545112     0.310561  Biso 1.000000     C
    C   1.0     0.756057     0.600428     0.411264  Biso 1.000000     C
    C   1.0     0.788528     0.588527     0.487726  Biso 1.000000     C
    C   1.0     0.786434     0.664948     0.534135  Biso 1.000000     C
    C   1.0     0.749044     0.750253     0.504788  Biso 1.000000     C
    C   1.0     0.712058     0.758621     0.428202  Biso 1.000000     C
    C   1.0     0.715491     0.684205     0.380346  Biso 1.000000     C
    C   1.0     0.632313     0.910897     0.434122  Biso 1.000000     C
    C   1.0     0.678317     0.883959     0.333139  Biso 1.000000     C
    C   1.0     0.639264     0.971027     0.330853  Biso 1.000000     C
    C   1.0     0.530294     0.305118     0.459820  Biso 1.000000     C
    C   1.0     0.513371     0.405562     0.480551  Biso 1.000000     C
    C   1.0     0.479256     0.472569     0.426241  Biso 1.000000     C
    C   1.0     0.466415     0.565885     0.445080  Biso 1.000000     C
    C   1.0     0.297139     0.566329     0.908376  Biso 1.000000     C
    C   1.0     0.401752     0.531571     0.956043  Biso 1.000000     C
    C   1.0     0.475979     0.503505     0.923504  Biso 1.000000     C
    C   1.0     0.572545     0.472791     0.966889  Biso 1.000000     C
    C   1.0     0.981207     0.325545     0.770563  Biso 1.000000     C
    C   1.0     0.902742     0.245817     0.728835  Biso 1.000000     C
    C   1.0     0.813860     0.222001     0.750045  Biso 1.000000     C
    C   1.0     0.737153     0.153451     0.710251  Biso 1.000000     C
    C   1.0     0.746738     0.106762     0.647609  Biso 1.000000     C
    C   1.0     0.837589     0.127407     0.628096  Biso 1.000000     C
    C   1.0     0.914585     0.195818     0.668298  Biso 1.000000     C
    C   1.0     0.656115     0.041177     0.600076  Biso 1.000000     C
    N   1.0     0.011577     0.428712     0.106849  Biso 1.000000     N
    N   1.0     0.127658     0.367573     0.061553  Biso 1.000000     N
    N   1.0     0.359393     0.273944     0.924689  Biso 1.000000     N
    N   1.0     0.334180     0.259338     0.803385  Biso 1.000000     N
    N   1.0     0.456748     0.231537     0.190402  Biso 1.000000     N
    N   1.0     0.515266     0.169514     0.300742  Biso 1.000000     N
    N   1.0     0.054697     0.371071     0.278980  Biso 1.000000     N
    N   1.0     0.169169     0.340097     0.387560  Biso 1.000000     N
    N   1.0     0.228063     0.471916     0.636088  Biso 1.000000     N
    N   1.0     0.160233     0.535131     0.716414  Biso 1.000000     N
    N   1.0     0.325932     0.153906     0.600599  Biso 1.000000     N
    N   1.0     0.388943     0.012806     0.605988  Biso 1.000000     N
    N   1.0     0.988386     0.571265     0.893115  Biso 1.000000     N
    N   1.0     0.872311     0.632414     0.938412  Biso 1.000000     N
    N   1.0     0.640576     0.726044     0.075278  Biso 1.000000     N
    N   1.0     0.665787     0.740644     0.196582  Biso 1.000000     N
    N   1.0     0.543219     0.768447     0.809564  Biso 1.000000     N
    N   1.0     0.484695     0.830453     0.699219  Biso 1.000000     N
    N   1.0     0.945269     0.628895     0.720987  Biso 1.000000     N
    N   1.0     0.830803     0.659879     0.612406  Biso 1.000000     N
    N   1.0     0.771902     0.528053     0.363880  Biso 1.000000     N
    N   1.0     0.839728     0.464831     0.283555  Biso 1.000000     N
    N   1.0     0.674045     0.846067     0.399366  Biso 1.000000     N
    N   1.0     0.611032     0.987163     0.393975  Biso 1.000000     N
    O   1.0     0.778992     0.497334     0.106476  Biso 1.000000     O
    O   1.0     0.704689     0.350261     0.111170  Biso 1.000000     O
    O   1.0     0.033475     0.595016     0.260861  Biso 1.000000     O
    O   1.0     0.950980     0.691557     0.169907  Biso 1.000000     O
    O   1.0     0.548014     0.755087     0.550462  Biso 1.000000     O
    O   1.0     0.382065     0.711804     0.546002  Biso 1.000000     O
    O   1.0     0.349945     0.043374     0.379592  Biso 1.000000     O
    O   1.0     0.407759     0.921742     0.453783  Biso 1.000000     O
    O   1.0     0.220970     0.502666     0.893493  Biso 1.000000     O
    O   1.0     0.295280     0.649739     0.888806  Biso 1.000000     O
    O   1.0     0.966485     0.404924     0.739081  Biso 1.000000     O
    O   1.0     0.048971     0.308443     0.830082  Biso 1.000000     O
    O   1.0     0.451978     0.244793     0.449537  Biso 1.000000     O
    O   1.0     0.617882     0.288189     0.453948  Biso 1.000000     O
    O   1.0     0.650014     0.956561     0.620347  Biso 1.000000     O
    O   1.0     0.592241     0.078249     0.546197  Biso 1.000000     O
   Br   1.0     0.548877     0.566119     0.675386  Biso 1.000000    Br
   Br   1.0     0.577286     0.342286     0.628832  Biso 1.000000    Br
   Br   1.0     0.557541     0.492405     0.181612  Biso 1.000000    Br
   Br   1.0     0.328386     0.566087     0.079586  Biso 1.000000    Br
   Br   1.0     0.960819     0.777895     0.358763  Biso 1.000000    Br
   Br   1.0     0.146861     0.939977     0.455252  Biso 1.000000    Br
   Br   1.0     0.201708     0.713666     0.165366  Biso 1.000000    Br
   Br   1.0     0.386023     0.876440     0.261980  Biso 1.000000    Br
   Br   1.0     0.451041     0.433809     0.324585  Biso 1.000000    Br
   Br   1.0     0.422643     0.657641     0.371143  Biso 1.000000    Br
   Br   1.0     0.442417     0.507584     0.818362  Biso 1.000000    Br
   Br   1.0     0.671577     0.433908     0.920388  Biso 1.000000    Br
   Br   1.0     0.039166     0.222052     0.641232  Biso 1.000000    Br
   Br   1.0     0.853125     0.059980     0.544729  Biso 1.000000    Br
   Br   1.0     0.798249     0.286275     0.834613  Biso 1.000000    Br
   Br   1.0     0.613950     0.123491     0.737996  Biso 1.000000    Br
   Cd   1.0     0.930870     0.469427     0.194951  Biso 1.000000    Cd
   Cd   1.0     0.476852     0.887815     0.581607  Biso 1.000000    Cd
   Cd   1.0     0.069080     0.530522     0.805010  Biso 1.000000    Cd
   Cd   1.0     0.523107     0.112118     0.418350  Biso 1.000000    Cd
