#======================================================================

# CRYSTAL DATA

#----------------------------------------------------------------------

data_VESTA_phase_1


_pd_phase_name                         MOF
_cell_length_a                         13.56900
_cell_length_b                         13.57100
_cell_length_c                         23.18700
_cell_angle_alpha                      90.02900
_cell_angle_beta                       89.96600
_cell_angle_gamma                      90.01400
_symmetry_space_group_name_H-M         "P 1"
_symmetry_Int_Tables_number            1

loop_
_symmetry_equiv_pos_as_xyz
   "x, y, z"

loop_
   _atom_site_label
   _atom_site_occupancy
   _atom_site_fract_x
   _atom_site_fract_y
   _atom_site_fract_z
   _atom_site_adp_type
   _atom_site_B_iso_or_equiv
   _atom_site_type_symbol
    H   1.0     0.005613     0.338817     0.713412  Biso 1.000000     H
    H   1.0     0.229804     0.238439     0.832590  Biso 1.000000     H
    H   1.0     0.940249     0.251977     0.887441  Biso 1.000000     H
    H   1.0     0.327289     0.322113     0.782637  Biso 1.000000     H
    H   1.0     0.417425     0.323580     0.606084  Biso 1.000000     H
    H   1.0     0.241796     0.300670     0.575087  Biso 1.000000     H
    H   1.0     0.110324     0.283727     0.647948  Biso 1.000000     H
    H   1.0     0.994556     0.661149     0.213328  Biso 1.000000     H
    H   1.0     0.770154     0.761502     0.332596  Biso 1.000000     H
    H   1.0     0.059606     0.747913     0.387414  Biso 1.000000     H
    H   1.0     0.672745     0.677889     0.282576  Biso 1.000000     H
    H   1.0     0.582938     0.676465     0.106026  Biso 1.000000     H
    H   1.0     0.758628     0.699379     0.075037  Biso 1.000000     H
    H   1.0     0.889964     0.716297     0.147901  Biso 1.000000     H
    H   1.0     0.160853     0.505455     0.963446  Biso 1.000000     H
    H   1.0     0.261242     0.729853     0.082634  Biso 1.000000     H
    H   1.0     0.247990     0.440336     0.137392  Biso 1.000000     H
    H   1.0     0.177622     0.827233     0.032665  Biso 1.000000     H
    H   1.0     0.176344     0.917014     0.856123  Biso 1.000000     H
    H   1.0     0.199140     0.741339     0.825134  Biso 1.000000     H
    H   1.0     0.215949     0.610026     0.898000  Biso 1.000000     H
    H   1.0     0.839062     0.494426     0.463380  Biso 1.000000     H
    H   1.0     0.738941     0.270142     0.582667  Biso 1.000000     H
    H   1.0     0.752151     0.559728     0.637458  Biso 1.000000     H
    H   1.0     0.822426     0.172741     0.532643  Biso 1.000000     H
    H   1.0     0.823648     0.082603     0.356096  Biso 1.000000     H
    H   1.0     0.800888     0.258218     0.325107  Biso 1.000000     H
    H   1.0     0.784112     0.389682     0.397973  Biso 1.000000     H
    H   1.0     0.494386     0.838846     0.536676  Biso 1.000000     H
    H   1.0     0.270109     0.738659     0.417408  Biso 1.000000     H
    H   1.0     0.559701     0.752148     0.362569  Biso 1.000000     H
    H   1.0     0.172688     0.822229     0.467425  Biso 1.000000     H
    H   1.0     0.082518     0.823592     0.643973  Biso 1.000000     H
    H   1.0     0.258132     0.800693     0.674964  Biso 1.000000     H
    H   1.0     0.389613     0.783795     0.602100  Biso 1.000000     H
    H   1.0     0.505430     0.161123     0.036622  Biso 1.000000     H
    H   1.0     0.729848     0.261556     0.917438  Biso 1.000000     H
    H   1.0     0.440340     0.248022     0.862637  Biso 1.000000     H
    H   1.0     0.827230     0.177854     0.967410  Biso 1.000000     H
    H   1.0     0.917005     0.176448     0.143952  Biso 1.000000     H
    H   1.0     0.741322     0.199386     0.174942  Biso 1.000000     H
    H   1.0     0.610012     0.216317     0.102078  Biso 1.000000     H
    H   1.0     0.339097     0.005632     0.286570  Biso 1.000000     H
    H   1.0     0.238713     0.229818     0.167401  Biso 1.000000     H
    H   1.0     0.252009     0.940253     0.112587  Biso 1.000000     H
    H   1.0     0.322315     0.327295     0.217348  Biso 1.000000     H
    H   1.0     0.323642     0.417385     0.393903  Biso 1.000000     H
    H   1.0     0.300885     0.241753     0.424897  Biso 1.000000     H
    H   1.0     0.284068     0.110301     0.352032  Biso 1.000000     H
    H   1.0     0.660848     0.994559     0.786660  Biso 1.000000     H
    H   1.0     0.761161     0.770175     0.667393  Biso 1.000000     H
    H   1.0     0.747829     0.059648     0.612603  Biso 1.000000     H
    H   1.0     0.677634     0.672783     0.717413  Biso 1.000000     H
    H   1.0     0.676352     0.582955     0.893962  Biso 1.000000     H
    H   1.0     0.699105     0.758636     0.924949  Biso 1.000000     H
    H   1.0     0.715903     0.889980     0.852084  Biso 1.000000     H
    C   1.0     0.852468     0.312712     0.785188  Biso 1.000000     C
    C   1.0     0.960334     0.296205     0.798028  Biso 1.000000     C
    C   1.0     0.030739     0.311130     0.754968  Biso 1.000000     C
    C   1.0     0.130445     0.290983     0.765492  Biso 1.000000     C
    C   1.0     0.154532     0.257576     0.820914  Biso 1.000000     C
    C   1.0     0.991727     0.264029     0.852165  Biso 1.000000     C
    C   1.0     0.208020     0.302036     0.721143  Biso 1.000000     C
    C   1.0     0.306593     0.315701     0.737460  Biso 1.000000     C
    C   1.0     0.381660     0.322350     0.696428  Biso 1.000000     C
    C   1.0     0.358232     0.317883     0.637641  Biso 1.000000     C
    C   1.0     0.260385     0.305222     0.620754  Biso 1.000000     C
    C   1.0     0.185915     0.296610     0.661953  Biso 1.000000     C
    C   1.0     0.486844     0.331124     0.716010  Biso 1.000000     C
    C   1.0     0.147557     0.687264     0.285142  Biso 1.000000     C
    C   1.0     0.039670     0.703719     0.297979  Biso 1.000000     C
    C   1.0     0.969352     0.688816     0.254907  Biso 1.000000     C
    C   1.0     0.869629     0.708990     0.265443  Biso 1.000000     C
    C   1.0     0.845441     0.742351     0.320896  Biso 1.000000     C
    C   1.0     0.008187     0.735868     0.352136  Biso 1.000000     C
    C   1.0     0.792134     0.697953     0.221091  Biso 1.000000     C
    C   1.0     0.693525     0.684315     0.237403  Biso 1.000000     C
    C   1.0     0.618530     0.677704     0.196371  Biso 1.000000     C
    C   1.0     0.642071     0.682158     0.137585  Biso 1.000000     C
    C   1.0     0.739954     0.694808     0.120703  Biso 1.000000     C
    C   1.0     0.814347     0.703415     0.161903  Biso 1.000000     C
    C   1.0     0.513312     0.668921     0.215962  Biso 1.000000     C
    C   1.0     0.187173     0.352412     0.035168  Biso 1.000000     C
    C   1.0     0.203606     0.460292     0.048018  Biso 1.000000     C
    C   1.0     0.188576     0.530654     0.004984  Biso 1.000000     C
    C   1.0     0.208694     0.630378     0.015522  Biso 1.000000     C
    C   1.0     0.242146     0.654559     0.070937  Biso 1.000000     C
    C   1.0     0.235841     0.491764     0.102143  Biso 1.000000     C
    C   1.0     0.197660     0.707856     0.971191  Biso 1.000000     C
    C   1.0     0.184035     0.806447     0.987503  Biso 1.000000     C
    C   1.0     0.177471     0.881423     0.946466  Biso 1.000000     C
    C   1.0     0.181960     0.857884     0.887680  Biso 1.000000     C
    C   1.0     0.194574     0.760015     0.870801  Biso 1.000000     C
    C   1.0     0.203088     0.685632     0.912002  Biso 1.000000     C
    C   1.0     0.168825     0.986640     0.966044  Biso 1.000000     C
    C   1.0     0.812759     0.647552     0.535164  Biso 1.000000     C
    C   1.0     0.796415     0.539679     0.548024  Biso 1.000000     C
    C   1.0     0.811419     0.469270     0.504962  Biso 1.000000     C
    C   1.0     0.791369     0.369551     0.515512  Biso 1.000000     C
    C   1.0     0.758006     0.345426     0.570962  Biso 1.000000     C
    C   1.0     0.764279     0.508262     0.602187  Biso 1.000000     C
    C   1.0     0.802397     0.291996     0.471158  Biso 1.000000     C
    C   1.0     0.816003     0.193436     0.487471  Biso 1.000000     C
    C   1.0     0.822532     0.118377     0.446437  Biso 1.000000     C
    C   1.0     0.818046     0.141797     0.387652  Biso 1.000000     C
    C   1.0     0.805459     0.239634     0.370772  Biso 1.000000     C
    C   1.0     0.796958     0.314102     0.411972  Biso 1.000000     C
    C   1.0     0.831169     0.013203     0.466015  Biso 1.000000     C
    C   1.0     0.647536     0.812731     0.464854  Biso 1.000000     C
    C   1.0     0.539657     0.796273     0.452024  Biso 1.000000     C
    C   1.0     0.469235     0.811189     0.495099  Biso 1.000000     C
    C   1.0     0.369503     0.791142     0.484550  Biso 1.000000     C
    C   1.0     0.345397     0.757753     0.429106  Biso 1.000000     C
    C   1.0     0.508235     0.764178     0.397857  Biso 1.000000     C
    C   1.0     0.291934     0.802116     0.528912  Biso 1.000000     C
    C   1.0     0.193375     0.815811     0.512599  Biso 1.000000     C
    C   1.0     0.118300     0.822414     0.553629  Biso 1.000000     C
    C   1.0     0.141716     0.817930     0.612414  Biso 1.000000     C
    C   1.0     0.239553     0.805253     0.629299  Biso 1.000000     C
    C   1.0     0.314033     0.796697     0.588100  Biso 1.000000     C
    C   1.0     0.013123     0.831132     0.534044  Biso 1.000000     C
    C   1.0     0.352396     0.187234     0.964862  Biso 1.000000     C
    C   1.0     0.460277     0.203763     0.952031  Biso 1.000000     C
    C   1.0     0.530634     0.188831     0.995082  Biso 1.000000     C
    C   1.0     0.630367     0.208990     0.984552  Biso 1.000000     C
    C   1.0     0.654551     0.242415     0.929129  Biso 1.000000     C
    C   1.0     0.491766     0.235962     0.897899  Biso 1.000000     C
    C   1.0     0.707855     0.197983     0.028886  Biso 1.000000     C
    C   1.0     0.806449     0.184274     0.012573  Biso 1.000000     C
    C   1.0     0.881432     0.177635     0.053606  Biso 1.000000     C
    C   1.0     0.857880     0.182124     0.112392  Biso 1.000000     C
    C   1.0     0.760006     0.194835     0.129275  Biso 1.000000     C
    C   1.0     0.685620     0.203399     0.088075  Biso 1.000000     C
    C   1.0     0.986654     0.168896     0.034014  Biso 1.000000     C
    C   1.0     0.312788     0.852467     0.214824  Biso 1.000000     C
    C   1.0     0.296351     0.960332     0.201981  Biso 1.000000     C
    C   1.0     0.311363     0.030758     0.245024  Biso 1.000000     C
    C   1.0     0.291277     0.130462     0.234489  Biso 1.000000     C
    C   1.0     0.257812     0.154546     0.179079  Biso 1.000000     C
    C   1.0     0.264125     0.991723     0.147852  Biso 1.000000     C
    C   1.0     0.302320     0.208015     0.278840  Biso 1.000000     C
    C   1.0     0.315916     0.306587     0.262525  Biso 1.000000     C
    C   1.0     0.322462     0.381641     0.303559  Biso 1.000000     C
    C   1.0     0.318021     0.358198     0.362346  Biso 1.000000     C
    C   1.0     0.305444     0.260351     0.379230  Biso 1.000000     C
    C   1.0     0.296900     0.185893     0.338030  Biso 1.000000     C
    C   1.0     0.331173     0.486823     0.283987  Biso 1.000000     C
    C   1.0     0.687178     0.147578     0.714869  Biso 1.000000     C
    C   1.0     0.703540     0.039700     0.702023  Biso 1.000000     C
    C   1.0     0.688537     0.969359     0.745085  Biso 1.000000     C
    C   1.0     0.708640     0.869641     0.734540  Biso 1.000000     C
    C   1.0     0.742053     0.845459     0.679096  Biso 1.000000     C
    C   1.0     0.735713     0.008223     0.647869  Biso 1.000000     C
    C   1.0     0.697636     0.792154     0.778896  Biso 1.000000     C
    C   1.0     0.684039     0.693556     0.762586  Biso 1.000000     C
    C   1.0     0.677506     0.618562     0.803619  Biso 1.000000     C
    C   1.0     0.681962     0.642094     0.862404  Biso 1.000000     C
    C   1.0     0.694550     0.739969     0.879283  Biso 1.000000     C
    C   1.0     0.703057     0.814370     0.838083  Biso 1.000000     C
    C   1.0     0.668887     0.513348     0.784031  Biso 1.000000     C
    N   1.0     0.087593     0.246023     0.863254  Biso 1.000000     N
    N   1.0     0.912308     0.753875     0.363236  Biso 1.000000     N
    N   1.0     0.253797     0.587677     0.113247  Biso 1.000000     N
    N   1.0     0.746385     0.412352     0.613296  Biso 1.000000     N
    N   1.0     0.412319     0.746250     0.386749  Biso 1.000000     N
    N   1.0     0.587684     0.253972     0.886800  Biso 1.000000     N
    N   1.0     0.246185     0.087613     0.136752  Biso 1.000000     N
    N   1.0     0.753653     0.912322     0.636762  Biso 1.000000     N
    O   1.0     0.790866     0.282764     0.822585  Biso 1.000000     O
    O   1.0     0.833252     0.353593     0.737246  Biso 1.000000     O
    O   1.0     0.502453     0.325343     0.770130  Biso 1.000000     O
    O   1.0     0.552017     0.341914     0.677109  Biso 1.000000     O
    O   1.0     0.209086     0.717246     0.322547  Biso 1.000000     O
    O   1.0     0.166846     0.646336     0.237188  Biso 1.000000     O
    O   1.0     0.497631     0.674766     0.270089  Biso 1.000000     O
    O   1.0     0.448193     0.658131     0.177072  Biso 1.000000     O
    O   1.0     0.217170     0.290890     0.072546  Biso 1.000000     O
    O   1.0     0.146304     0.333127     0.987231  Biso 1.000000     O
    O   1.0     0.174651     0.002318     0.020153  Biso 1.000000     O
    O   1.0     0.158066     0.051737     0.927153  Biso 1.000000     O
    O   1.0     0.782738     0.709104     0.572570  Biso 1.000000     O
    O   1.0     0.853602     0.666811     0.487184  Biso 1.000000     O
    O   1.0     0.825293     0.997595     0.520137  Biso 1.000000     O
    O   1.0     0.841935     0.948047     0.427113  Biso 1.000000     O
    O   1.0     0.709106     0.782732     0.427446  Biso 1.000000     O
    O   1.0     0.666793     0.853558     0.512834  Biso 1.000000     O
    O   1.0     0.997549     0.825316     0.479921  Biso 1.000000     O
    O   1.0     0.947982     0.841946     0.572944  Biso 1.000000     O
    O   1.0     0.290862     0.217187     0.927475  Biso 1.000000     O
    O   1.0     0.333122     0.146349     0.012794  Biso 1.000000     O
    O   1.0     0.002290     0.174660     0.979901  Biso 1.000000     O
    O   1.0     0.051733     0.158079     0.072898  Biso 1.000000     O
    O   1.0     0.282780     0.790886     0.177440  Biso 1.000000     O
    O   1.0     0.353634     0.833232     0.262775  Biso 1.000000     O
    O   1.0     0.325333     0.502451     0.229870  Biso 1.000000     O
    O   1.0     0.341900     0.551979     0.322893  Biso 1.000000     O
    O   1.0     0.717234     0.209090     0.677476  Biso 1.000000     O
    O   1.0     0.646295     0.166871     0.762839  Biso 1.000000     O
    O   1.0     0.674770     0.497676     0.729905  Biso 1.000000     O
    O   1.0     0.658117     0.448229     0.822920  Biso 1.000000     O
   Zn   1.0     0.137617     0.199450     0.942746  Biso 1.000000    Zn
   Zn   1.0     0.862336     0.800456     0.442749  Biso 1.000000    Zn
   Zn   1.0     0.300517     0.637666     0.192723  Biso 1.000000    Zn
   Zn   1.0     0.699607     0.362366     0.692764  Biso 1.000000    Zn
   Zn   1.0     0.362350     0.699578     0.307257  Biso 1.000000    Zn
   Zn   1.0     0.637678     0.300542     0.807291  Biso 1.000000    Zn
   Zn   1.0     0.199455     0.137627     0.057284  Biso 1.000000    Zn
   Zn   1.0     0.800427     0.862346     0.557275  Biso 1.000000    Zn
