#======================================================================

# CRYSTAL DATA

#----------------------------------------------------------------------

data_VESTA_phase_1


_pd_phase_name                         MOF
_cell_length_a                         14.72100
_cell_length_b                         20.47600
_cell_length_c                         13.14200
_cell_angle_alpha                      89.99000
_cell_angle_beta                       89.92800
_cell_angle_gamma                      99.09400
_symmetry_space_group_name_H-M         "P 1"
_symmetry_Int_Tables_number            1

loop_
_symmetry_equiv_pos_as_xyz
   "x, y, z"

loop_
   _atom_site_label
   _atom_site_occupancy
   _atom_site_fract_x
   _atom_site_fract_y
   _atom_site_fract_z
   _atom_site_adp_type
   _atom_site_B_iso_or_equiv
   _atom_site_type_symbol
    H   1.0     0.285957     0.105462     0.058155  Biso 1.000000     H
    H   1.0     0.285961     0.605475     0.058155  Biso 1.000000     H
    H   1.0     0.785944     0.105463     0.058154  Biso 1.000000     H
    H   1.0     0.785948     0.605475     0.058154  Biso 1.000000     H
    H   1.0     0.459895    -0.007131     0.266820  Biso 1.000000     H
    H   1.0     0.459899     0.492881     0.266820  Biso 1.000000     H
    H   1.0     0.959878    -0.007131     0.266820  Biso 1.000000     H
    H   1.0     0.959883     0.492881     0.266820  Biso 1.000000     H
    H   1.0     0.044422     0.047408     0.142522  Biso 1.000000     H
    H   1.0     0.044426     0.547420     0.142522  Biso 1.000000     H
    H   1.0     0.544410     0.047408     0.142522  Biso 1.000000     H
    H   1.0     0.544415     0.547420     0.142522  Biso 1.000000     H
    H   1.0     0.214066     0.144500     0.556454  Biso 1.000000     H
    H   1.0     0.214071     0.644512     0.556455  Biso 1.000000     H
    H   1.0     0.714053     0.144500     0.556455  Biso 1.000000     H
    H   1.0     0.714058     0.644512     0.556455  Biso 1.000000     H
    H   1.0     0.040263     0.257127     0.766193  Biso 1.000000     H
    H   1.0     0.040268     0.757139     0.766193  Biso 1.000000     H
    H   1.0     0.540251     0.257127     0.766193  Biso 1.000000     H
    H   1.0     0.540256     0.757139     0.766193  Biso 1.000000     H
    H   1.0     0.455853     0.202767     0.642138  Biso 1.000000     H
    H   1.0     0.455858     0.702780     0.642138  Biso 1.000000     H
    H   1.0     0.955841     0.202766     0.642138  Biso 1.000000     H
    H   1.0     0.955845     0.702778     0.642138  Biso 1.000000     H
    H   1.0     0.214029     0.394547     0.941844  Biso 1.000000     H
    H   1.0     0.214034     0.894559     0.941844  Biso 1.000000     H
    H   1.0     0.714016     0.394548     0.941843  Biso 1.000000     H
    H   1.0     0.714021     0.894560     0.941843  Biso 1.000000     H
    H   1.0     0.040095     0.507142     0.733176  Biso 1.000000     H
    H   1.0     0.040100     0.000000     0.733176  Biso 1.000000     H
    H   1.0     0.540080     0.507142     0.733176  Biso 1.000000     H
    H   1.0     0.540084     0.000000     0.733176  Biso 1.000000     H
    H   1.0     0.455564     0.452603     0.857474  Biso 1.000000     H
    H   1.0     0.455568     0.952615     0.857474  Biso 1.000000     H
    H   1.0     0.955552     0.452603     0.857474  Biso 1.000000     H
    H   1.0     0.955556     0.952615     0.857474  Biso 1.000000     H
    H   1.0     0.285920     0.355511     0.443543  Biso 1.000000     H
    H   1.0     0.285925     0.855523     0.443544  Biso 1.000000     H
    H   1.0     0.785907     0.355511     0.443544  Biso 1.000000     H
    H   1.0     0.785911     0.855523     0.443544  Biso 1.000000     H
    H   1.0     0.459721     0.242883     0.233805  Biso 1.000000     H
    H   1.0     0.459726     0.742896     0.233804  Biso 1.000000     H
    H   1.0     0.959709     0.242884     0.233805  Biso 1.000000     H
    H   1.0     0.959714     0.742896     0.233805  Biso 1.000000     H
    H   1.0     0.044132     0.297245     0.357860  Biso 1.000000     H
    H   1.0     0.044137     0.797257     0.357860  Biso 1.000000     H
    H   1.0     0.544120     0.297243     0.357859  Biso 1.000000     H
    H   1.0     0.544124     0.797255     0.357859  Biso 1.000000     H
    C   1.0     0.481993     0.066902     0.166643  Biso 1.000000     C
    C   1.0     0.481997     0.566915     0.166643  Biso 1.000000     C
    C   1.0     0.981980     0.066903     0.166643  Biso 1.000000     C
    C   1.0     0.981984     0.566915     0.166643  Biso 1.000000     C
    C   1.0     0.501910     0.141714     0.169803  Biso 1.000000     C
    C   1.0     0.501915     0.641726     0.169803  Biso 1.000000     C
    C   1.0     0.000000     0.141714     0.169802  Biso 1.000000     C
    C   1.0     0.000000     0.641727     0.169802  Biso 1.000000     C
    C   1.0     0.223486     0.277716     0.981730  Biso 1.000000     C
    C   1.0     0.223490     0.777728     0.981730  Biso 1.000000     C
    C   1.0     0.723473     0.277716     0.981730  Biso 1.000000     C
    C   1.0     0.723477     0.777728     0.981730  Biso 1.000000     C
    C   1.0     0.018209     0.183156     0.666033  Biso 1.000000     C
    C   1.0     0.018213     0.683169     0.666033  Biso 1.000000     C
    C   1.0     0.518195     0.183157     0.666034  Biso 1.000000     C
    C   1.0     0.518200     0.683169     0.666034  Biso 1.000000     C
    C   1.0    -0.002003     0.108373     0.669455  Biso 1.000000     C
    C   1.0    -0.001999     0.608385     0.669455  Biso 1.000000     C
    C   1.0     0.497982     0.108374     0.669456  Biso 1.000000     C
    C   1.0     0.497986     0.608386     0.669456  Biso 1.000000     C
    C   1.0     0.276553     0.472299     0.481815  Biso 1.000000     C
    C   1.0     0.276557     0.972311     0.481814  Biso 1.000000     C
    C   1.0     0.776540     0.472299     0.481815  Biso 1.000000     C
    C   1.0     0.776545     0.972311     0.481815  Biso 1.000000     C
    C   1.0     0.017994     0.433108     0.833354  Biso 1.000000     C
    C   1.0     0.017998     0.933120     0.833354  Biso 1.000000     C
    C   1.0     0.517980     0.433108     0.833353  Biso 1.000000     C
    C   1.0     0.517985     0.933121     0.833353  Biso 1.000000     C
    C   1.0    -0.001925     0.358296     0.830194  Biso 1.000000     C
    C   1.0    -0.001920     0.858309     0.830194  Biso 1.000000     C
    C   1.0     0.498063     0.358297     0.830194  Biso 1.000000     C
    C   1.0     0.498067     0.858309     0.830194  Biso 1.000000     C
    C   1.0     0.276500     0.222294     0.018269  Biso 1.000000     C
    C   1.0     0.276504     0.722306     0.018268  Biso 1.000000     C
    C   1.0     0.776486     0.222295     0.018269  Biso 1.000000     C
    C   1.0     0.776491     0.722307     0.018269  Biso 1.000000     C
    C   1.0     0.481778     0.316854     0.333964  Biso 1.000000     C
    C   1.0     0.481782     0.816866     0.333964  Biso 1.000000     C
    C   1.0     0.981764     0.316854     0.333965  Biso 1.000000     C
    C   1.0     0.981768     0.816866     0.333965  Biso 1.000000     C
    C   1.0     0.501991     0.391637     0.330542  Biso 1.000000     C
    C   1.0     0.501996     0.891649     0.330541  Biso 1.000000     C
    C   1.0     0.000000     0.391638     0.330543  Biso 1.000000     C
    C   1.0     0.000000     0.891650     0.330543  Biso 1.000000     C
    C   1.0     0.223433     0.027712     0.518184  Biso 1.000000     C
    C   1.0     0.223437     0.527724     0.518184  Biso 1.000000     C
    C   1.0     0.723420     0.027712     0.518184  Biso 1.000000     C
    C   1.0     0.723425     0.527724     0.518184  Biso 1.000000     C
    O   1.0     0.305109     0.069083     0.101817  Biso 1.000000     O
    O   1.0     0.305114     0.569095     0.101817  Biso 1.000000     O
    O   1.0     0.805096     0.069083     0.101816  Biso 1.000000     O
    O   1.0     0.805101     0.569095     0.101816  Biso 1.000000     O
    O   1.0     0.433776     0.072377     0.967796  Biso 1.000000     O
    O   1.0     0.433781     0.572390     0.967796  Biso 1.000000     O
    O   1.0     0.933764     0.072378     0.967795  Biso 1.000000     O
    O   1.0     0.933768     0.572390     0.967795  Biso 1.000000     O
    O   1.0     0.374120     0.465604     0.069999  Biso 1.000000     O
    O   1.0     0.374124     0.965616     0.069999  Biso 1.000000     O
    O   1.0     0.874107     0.465605     0.069997  Biso 1.000000     O
    O   1.0     0.874111     0.965617     0.069997  Biso 1.000000     O
    O   1.0     0.453310     0.041892     0.264989  Biso 1.000000     O
    O   1.0     0.453315     0.541904     0.264989  Biso 1.000000     O
    O   1.0     0.953296     0.041892     0.264989  Biso 1.000000     O
    O   1.0     0.953300     0.541905     0.264989  Biso 1.000000     O
    O   1.0     0.042140     0.172607     0.095186  Biso 1.000000     O
    O   1.0     0.042144     0.672619     0.095187  Biso 1.000000     O
    O   1.0     0.542126     0.172607     0.095187  Biso 1.000000     O
    O   1.0     0.542131     0.672619     0.095187  Biso 1.000000     O
    O   1.0     0.472923     0.169255     0.248533  Biso 1.000000     O
    O   1.0     0.472927     0.669267     0.248533  Biso 1.000000     O
    O   1.0     0.972911     0.169255     0.248533  Biso 1.000000     O
    O   1.0     0.972915     0.669267     0.248533  Biso 1.000000     O
    O   1.0     0.148140     0.260874     0.936971  Biso 1.000000     O
    O   1.0     0.148145     0.760886     0.936971  Biso 1.000000     O
    O   1.0     0.648127     0.260875     0.936972  Biso 1.000000     O
    O   1.0     0.648132     0.760887     0.936972  Biso 1.000000     O
    O   1.0     0.261729     0.337124     0.000000  Biso 1.000000     O
    O   1.0     0.261733     0.837136     0.000000  Biso 1.000000     O
    O   1.0     0.761716     0.337125     0.000000  Biso 1.000000     O
    O   1.0     0.761720     0.837137     0.000000  Biso 1.000000     O
    O   1.0     0.195027     0.180967     0.600086  Biso 1.000000     O
    O   1.0     0.195032     0.680979     0.600086  Biso 1.000000     O
    O   1.0     0.695014     0.180967     0.600086  Biso 1.000000     O
    O   1.0     0.695019     0.680979     0.600086  Biso 1.000000     O
    O   1.0     0.066217     0.177584     0.466715  Biso 1.000000     O
    O   1.0     0.066221     0.677596     0.466715  Biso 1.000000     O
    O   1.0     0.566204     0.177584     0.466715  Biso 1.000000     O
    O   1.0     0.566208     0.677596     0.466715  Biso 1.000000     O
    O   1.0     0.125788     0.284368     0.568552  Biso 1.000000     O
    O   1.0     0.125793     0.784381     0.568552  Biso 1.000000     O
    O   1.0     0.625775     0.284368     0.568552  Biso 1.000000     O
    O   1.0     0.625780     0.784380     0.568552  Biso 1.000000     O
    O   1.0     0.046991     0.208140     0.764324  Biso 1.000000     O
    O   1.0     0.046995     0.708152     0.764324  Biso 1.000000     O
    O   1.0     0.546978     0.208140     0.764324  Biso 1.000000     O
    O   1.0     0.546983     0.708153     0.764324  Biso 1.000000     O
    O   1.0     0.457336     0.077494     0.595187  Biso 1.000000     O
    O   1.0     0.457341     0.577506     0.595187  Biso 1.000000     O
    O   1.0     0.957325     0.077493     0.595186  Biso 1.000000     O
    O   1.0     0.957330     0.577505     0.595186  Biso 1.000000     O
    O   1.0     0.027047     0.080796     0.748005  Biso 1.000000     O
    O   1.0     0.027051     0.580808     0.748006  Biso 1.000000     O
    O   1.0     0.527031     0.080796     0.748007  Biso 1.000000     O
    O   1.0     0.527036     0.580808     0.748007  Biso 1.000000     O
    O   1.0     0.351451     0.489013     0.435911  Biso 1.000000     O
    O   1.0     0.351457     0.989025     0.435913  Biso 1.000000     O
    O   1.0     0.851439     0.489013     0.435911  Biso 1.000000     O
    O   1.0     0.851443     0.989025     0.435911  Biso 1.000000     O
    O   1.0     0.238704     0.412959     0.501952  Biso 1.000000     O
    O   1.0     0.238710     0.912971     0.501954  Biso 1.000000     O
    O   1.0     0.738692     0.412959     0.501952  Biso 1.000000     O
    O   1.0     0.738696     0.912971     0.501952  Biso 1.000000     O
    O   1.0     0.194877     0.430927     0.898182  Biso 1.000000     O
    O   1.0     0.194881     0.930939     0.898182  Biso 1.000000     O
    O   1.0     0.694864     0.430928     0.898181  Biso 1.000000     O
    O   1.0     0.694869     0.930940     0.898181  Biso 1.000000     O
    O   1.0     0.066209     0.427633     0.032202  Biso 1.000000     O
    O   1.0     0.066213     0.927645     0.032201  Biso 1.000000     O
    O   1.0     0.566196     0.427633     0.032201  Biso 1.000000     O
    O   1.0     0.566201     0.927645     0.032201  Biso 1.000000     O
    O   1.0     0.125867     0.034406     0.929999  Biso 1.000000     O
    O   1.0     0.125871     0.534418     0.929999  Biso 1.000000     O
    O   1.0     0.625854     0.034406     0.929998  Biso 1.000000     O
    O   1.0     0.625858     0.534418     0.929998  Biso 1.000000     O
    O   1.0     0.046677     0.458118     0.735007  Biso 1.000000     O
    O   1.0     0.046682     0.958130     0.735007  Biso 1.000000     O
    O   1.0     0.546663     0.458119     0.735007  Biso 1.000000     O
    O   1.0     0.546668     0.958131     0.735007  Biso 1.000000     O
    O   1.0     0.457845     0.327404     0.904809  Biso 1.000000     O
    O   1.0     0.457850     0.827417     0.904809  Biso 1.000000     O
    O   1.0     0.957832     0.327404     0.904810  Biso 1.000000     O
    O   1.0     0.957837     0.827417     0.904809  Biso 1.000000     O
    O   1.0     0.027063     0.330756     0.751464  Biso 1.000000     O
    O   1.0     0.027067     0.830768     0.751464  Biso 1.000000     O
    O   1.0     0.527051     0.330756     0.751464  Biso 1.000000     O
    O   1.0     0.527055     0.830768     0.751464  Biso 1.000000     O
    O   1.0     0.351845     0.239136     0.063027  Biso 1.000000     O
    O   1.0     0.351850     0.739148     0.063027  Biso 1.000000     O
    O   1.0     0.851832     0.239137     0.063027  Biso 1.000000     O
    O   1.0     0.851837     0.739149     0.063027  Biso 1.000000     O
    O   1.0     0.238257     0.162886    -0.000523  Biso 1.000000     O
    O   1.0     0.238261     0.662898    -0.000523  Biso 1.000000     O
    O   1.0     0.738244     0.162887    -0.000523  Biso 1.000000     O
    O   1.0     0.738248     0.662899    -0.000523  Biso 1.000000     O
    O   1.0     0.304959     0.319044     0.399912  Biso 1.000000     O
    O   1.0     0.304963     0.819056     0.399912  Biso 1.000000     O
    O   1.0     0.804945     0.319044     0.399913  Biso 1.000000     O
    O   1.0     0.804950     0.819056     0.399913  Biso 1.000000     O
    O   1.0     0.433769     0.322427     0.533283  Biso 1.000000     O
    O   1.0     0.433774     0.822439     0.533283  Biso 1.000000     O
    O   1.0     0.933756     0.322427     0.533284  Biso 1.000000     O
    O   1.0     0.933761     0.822439     0.533284  Biso 1.000000     O
    O   1.0     0.374199     0.215642     0.431446  Biso 1.000000     O
    O   1.0     0.374203     0.715654     0.431446  Biso 1.000000     O
    O   1.0     0.874186     0.215642     0.431446  Biso 1.000000     O
    O   1.0     0.874190     0.715654     0.431446  Biso 1.000000     O
    O   1.0     0.452994     0.291870     0.235674  Biso 1.000000     O
    O   1.0     0.452998     0.791882     0.235674  Biso 1.000000     O
    O   1.0     0.952981     0.291871     0.235674  Biso 1.000000     O
    O   1.0     0.952986     0.791883     0.235674  Biso 1.000000     O
    O   1.0     0.042648     0.422518     0.404811  Biso 1.000000     O
    O   1.0     0.042652     0.922530     0.404811  Biso 1.000000     O
    O   1.0     0.542637     0.422517     0.404811  Biso 1.000000     O
    O   1.0     0.542641     0.922529     0.404810  Biso 1.000000     O
    O   1.0     0.472943     0.419214     0.251990  Biso 1.000000     O
    O   1.0     0.472947     0.919226     0.251990  Biso 1.000000     O
    O   1.0     0.972927     0.419215     0.251991  Biso 1.000000     O
    O   1.0     0.972931     0.919227     0.251991  Biso 1.000000     O
    O   1.0     0.148533     0.010998     0.564085  Biso 1.000000     O
    O   1.0     0.148539     0.511010     0.564087  Biso 1.000000     O
    O   1.0     0.648522     0.010998     0.564087  Biso 1.000000     O
    O   1.0     0.648526     0.511010     0.564087  Biso 1.000000     O
    O   1.0     0.261281     0.087052     0.498044  Biso 1.000000     O
    O   1.0     0.261286     0.587064     0.498046  Biso 1.000000     O
    O   1.0     0.761269     0.087052     0.498047  Biso 1.000000     O
    O   1.0     0.761274     0.587064     0.498047  Biso 1.000000     O
    P   1.0     0.393671     0.040783     0.066512  Biso 1.000000     P
    P   1.0     0.393675     0.540795     0.066512  Biso 1.000000     P
    P   1.0     0.893658     0.040784     0.066511  Biso 1.000000     P
    P   1.0     0.893662     0.540796     0.066511  Biso 1.000000     P
    P   1.0     0.106373     0.209180     0.565297  Biso 1.000000     P
    P   1.0     0.106377     0.709192     0.565297  Biso 1.000000     P
    P   1.0     0.606360     0.209180     0.565298  Biso 1.000000     P
    P   1.0     0.606364     0.709192     0.565298  Biso 1.000000     P
    P   1.0     0.106316     0.459227     0.933486  Biso 1.000000     P
    P   1.0     0.106320     0.959239     0.933486  Biso 1.000000     P
    P   1.0     0.606303     0.459228     0.933485  Biso 1.000000     P
    P   1.0     0.606307     0.959240     0.933485  Biso 1.000000     P
    P   1.0     0.393614     0.290831     0.434701  Biso 1.000000     P
    P   1.0     0.393618     0.790843     0.434701  Biso 1.000000     P
    P   1.0     0.893600     0.290831     0.434701  Biso 1.000000     P
    P   1.0     0.893605     0.790843     0.434701  Biso 1.000000     P
   La   1.0     0.076681     0.138850     0.917825  Biso 1.000000    La
   La   1.0     0.076685     0.638862     0.917825  Biso 1.000000    La
   La   1.0     0.576668     0.138850     0.917826  Biso 1.000000    La
   La   1.0     0.576672     0.638862     0.917826  Biso 1.000000    La
   La   1.0     0.423109     0.111188     0.417880  Biso 1.000000    La
   La   1.0     0.423114     0.611200     0.417881  Biso 1.000000    La
   La   1.0     0.923097     0.111188     0.417880  Biso 1.000000    La
   La   1.0     0.923101     0.611201     0.417880  Biso 1.000000    La
   La   1.0     0.423306     0.361160     0.082172  Biso 1.000000    La
   La   1.0     0.423310     0.861172     0.082171  Biso 1.000000    La
   La   1.0     0.923292     0.361161     0.082172  Biso 1.000000    La
   La   1.0     0.923297     0.861173     0.082172  Biso 1.000000    La
   La   1.0     0.076877     0.388822     0.582117  Biso 1.000000    La
   La   1.0     0.076881     0.888834     0.582117  Biso 1.000000    La
   La   1.0     0.576865     0.388822     0.582117  Biso 1.000000    La
   La   1.0     0.576869     0.888835     0.582117  Biso 1.000000    La
