#======================================================================

# CRYSTAL DATA

#----------------------------------------------------------------------

data_VESTA_phase_1


_pd_phase_name                         MOF
_cell_length_a                         19.05200
_cell_length_b                         19.05200
_cell_length_c                         17.48900
_cell_angle_alpha                      90.00000
_cell_angle_beta                       90.00000
_cell_angle_gamma                      119.99300
_symmetry_space_group_name_H-M         "P 1"
_symmetry_Int_Tables_number            1

loop_
_symmetry_equiv_pos_as_xyz
   "x, y, z"

loop_
   _atom_site_label
   _atom_site_occupancy
   _atom_site_fract_x
   _atom_site_fract_y
   _atom_site_fract_z
   _atom_site_adp_type
   _atom_site_B_iso_or_equiv
   _atom_site_type_symbol
    H   1.0     0.241937     0.326681     0.972423  Biso 1.000000     H
    H   1.0     0.241939     0.826668     0.972406  Biso 1.000000     H
    H   1.0     0.741928     0.326662     0.972410  Biso 1.000000     H
    H   1.0     0.741933     0.826664     0.972411  Biso 1.000000     H
    H   1.0     0.289687     0.289743     0.909455  Biso 1.000000     H
    H   1.0     0.289708     0.789747     0.909444  Biso 1.000000     H
    H   1.0     0.789699     0.289753     0.909437  Biso 1.000000     H
    H   1.0     0.789702     0.789748     0.909442  Biso 1.000000     H
    H   1.0     0.084740     0.258059     0.972438  Biso 1.000000     H
    H   1.0     0.084717     0.758066     0.972404  Biso 1.000000     H
    H   1.0     0.584726     0.258060     0.972439  Biso 1.000000     H
    H   1.0     0.584728     0.758060     0.972425  Biso 1.000000     H
    H   1.0     0.000071     0.210333     0.909461  Biso 1.000000     H
    H   1.0     0.000048     0.710290     0.909433  Biso 1.000000     H
    H   1.0     0.500065     0.210328     0.909454  Biso 1.000000     H
    H   1.0     0.500054     0.710311     0.909452  Biso 1.000000     H
    H   1.0     0.173340     0.415262     0.972422  Biso 1.000000     H
    H   1.0     0.173365     0.915281     0.972409  Biso 1.000000     H
    H   1.0     0.673334     0.415259     0.972428  Biso 1.000000     H
    H   1.0     0.673344     0.915266     0.972420  Biso 1.000000     H
    H   1.0     0.210258     0.499942     0.909451  Biso 1.000000     H
    H   1.0     0.210251     0.999952     0.909429  Biso 1.000000     H
    H   1.0     0.710250     0.499932     0.909449  Biso 1.000000     H
    H   1.0     0.710252     0.999943     0.909445  Biso 1.000000     H
    H   1.0     0.241934     0.326654     0.527603  Biso 1.000000     H
    H   1.0     0.241938     0.826661     0.527603  Biso 1.000000     H
    H   1.0     0.741930     0.326654     0.527591  Biso 1.000000     H
    H   1.0     0.741937     0.826669     0.527593  Biso 1.000000     H
    H   1.0     0.289716     0.289753     0.590573  Biso 1.000000     H
    H   1.0     0.289720     0.789748     0.590565  Biso 1.000000     H
    H   1.0     0.789700     0.289748     0.590570  Biso 1.000000     H
    H   1.0     0.789706     0.789746     0.590558  Biso 1.000000     H
    H   1.0     0.084717     0.258061     0.527590  Biso 1.000000     H
    H   1.0     0.084727     0.758060     0.527580  Biso 1.000000     H
    H   1.0     0.584710     0.258057     0.527578  Biso 1.000000     H
    H   1.0     0.584728     0.758064     0.527577  Biso 1.000000     H
    H   1.0     0.000047     0.210301     0.590563  Biso 1.000000     H
    H   1.0     0.000056     0.710304     0.590557  Biso 1.000000     H
    H   1.0     0.500048     0.210307     0.590560  Biso 1.000000     H
    H   1.0     0.500058     0.710314     0.590557  Biso 1.000000     H
    H   1.0     0.173370     0.415280     0.527619  Biso 1.000000     H
    H   1.0     0.173332     0.915250     0.527558  Biso 1.000000     H
    H   1.0     0.673351     0.415274     0.527590  Biso 1.000000     H
    H   1.0     0.673359     0.915277     0.527593  Biso 1.000000     H
    H   1.0     0.210243     0.499966     0.590582  Biso 1.000000     H
    H   1.0     0.210263     0.999919     0.590545  Biso 1.000000     H
    H   1.0     0.710244     0.499949     0.590570  Biso 1.000000     H
    H   1.0     0.710247     0.999951     0.590571  Biso 1.000000     H
    H   1.0     0.415269     0.173355     0.027598  Biso 1.000000     H
    H   1.0     0.415290     0.673364     0.027591  Biso 1.000000     H
    H   1.0     0.915270     0.173359     0.027590  Biso 1.000000     H
    H   1.0     0.915271     0.673348     0.027573  Biso 1.000000     H
    H   1.0     0.499948     0.210244     0.090567  Biso 1.000000     H
    H   1.0     0.499952     0.710239     0.090575  Biso 1.000000     H
    H   1.0     0.999942     0.210243     0.090570  Biso 1.000000     H
    H   1.0     0.999936     0.710248     0.090559  Biso 1.000000     H
    H   1.0     0.326657     0.241931     0.027594  Biso 1.000000     H
    H   1.0     0.326669     0.741932     0.027576  Biso 1.000000     H
    H   1.0     0.826686     0.241935     0.027570  Biso 1.000000     H
    H   1.0     0.826676     0.741930     0.027574  Biso 1.000000     H
    H   1.0     0.289756     0.289708     0.090570  Biso 1.000000     H
    H   1.0     0.289755     0.789692     0.090559  Biso 1.000000     H
    H   1.0     0.789742     0.289674     0.090543  Biso 1.000000     H
    H   1.0     0.789750     0.789682     0.090552  Biso 1.000000     H
    H   1.0     0.258058     0.084717     0.027579  Biso 1.000000     H
    H   1.0     0.258068     0.584714     0.027579  Biso 1.000000     H
    H   1.0     0.758056     0.084708     0.027586  Biso 1.000000     H
    H   1.0     0.758067     0.584715     0.027584  Biso 1.000000     H
    H   1.0     0.210305     0.000054     0.090557  Biso 1.000000     H
    H   1.0     0.210310     0.500057     0.090567  Biso 1.000000     H
    H   1.0     0.710289     0.000048     0.090567  Biso 1.000000     H
    H   1.0     0.710302     0.500051     0.090563  Biso 1.000000     H
    H   1.0     0.415280     0.173361     0.472403  Biso 1.000000     H
    H   1.0     0.415263     0.673337     0.472429  Biso 1.000000     H
    H   1.0     0.915266     0.173349     0.472425  Biso 1.000000     H
    H   1.0     0.915259     0.673334     0.472429  Biso 1.000000     H
    H   1.0     0.499961     0.210244     0.409431  Biso 1.000000     H
    H   1.0     0.499934     0.710249     0.409449  Biso 1.000000     H
    H   1.0     0.999937     0.210251     0.409441  Biso 1.000000     H
    H   1.0     0.999928     0.710243     0.409445  Biso 1.000000     H
    H   1.0     0.326686     0.241936     0.472435  Biso 1.000000     H
    H   1.0     0.326663     0.741933     0.472426  Biso 1.000000     H
    H   1.0     0.826659     0.241931     0.472409  Biso 1.000000     H
    H   1.0     0.826657     0.741935     0.472417  Biso 1.000000     H
    H   1.0     0.289743     0.289678     0.409458  Biso 1.000000     H
    H   1.0     0.289750     0.789698     0.409442  Biso 1.000000     H
    H   1.0     0.789742     0.289703     0.409443  Biso 1.000000     H
    H   1.0     0.789755     0.789705     0.409433  Biso 1.000000     H
    H   1.0     0.258066     0.084725     0.472415  Biso 1.000000     H
    H   1.0     0.258060     0.584752     0.472475  Biso 1.000000     H
    H   1.0     0.758056     0.084723     0.472426  Biso 1.000000     H
    H   1.0     0.758061     0.584724     0.472433  Biso 1.000000     H
    H   1.0     0.210300     0.000050     0.409443  Biso 1.000000     H
    H   1.0     0.210373     0.500096     0.409479  Biso 1.000000     H
    H   1.0     0.710306     0.000058     0.409448  Biso 1.000000     H
    H   1.0     0.710319     0.500060     0.409452  Biso 1.000000     H
    C   1.0     0.325041     0.415849     0.892838  Biso 1.000000     C
    C   1.0     0.325036     0.915860     0.892848  Biso 1.000000     C
    C   1.0     0.825034     0.415853     0.892837  Biso 1.000000     C
    C   1.0     0.825032     0.915854     0.892845  Biso 1.000000     C
    C   1.0     0.299823     0.342252     0.944290  Biso 1.000000     C
    C   1.0     0.299830     0.842250     0.944278  Biso 1.000000     C
    C   1.0     0.799820     0.342252     0.944281  Biso 1.000000     C
    C   1.0     0.799823     0.842249     0.944281  Biso 1.000000     C
    C   1.0     0.090808     0.174953     0.892836  Biso 1.000000     C
    C   1.0     0.090841     0.674966     0.892850  Biso 1.000000     C
    C   1.0     0.590798     0.174952     0.892833  Biso 1.000000     C
    C   1.0     0.590827     0.674961     0.892848  Biso 1.000000     C
    C   1.0     0.042436     0.200181     0.944293  Biso 1.000000     C
    C   1.0     0.042430     0.700172     0.944276  Biso 1.000000     C
    C   1.0     0.542430     0.200181     0.944294  Biso 1.000000     C
    C   1.0     0.542432     0.700177     0.944283  Biso 1.000000     C
    C   1.0     0.084150     0.409182     0.892843  Biso 1.000000     C
    C   1.0     0.084145     0.909168     0.892848  Biso 1.000000     C
    C   1.0     0.584149     0.409194     0.892834  Biso 1.000000     C
    C   1.0     0.584146     0.909181     0.892840  Biso 1.000000     C
    C   1.0     0.157754     0.457565     0.944280  Biso 1.000000     C
    C   1.0     0.157759     0.957570     0.944270  Biso 1.000000     C
    C   1.0     0.657747     0.457558     0.944283  Biso 1.000000     C
    C   1.0     0.657751     0.957562     0.944276  Biso 1.000000     C
    C   1.0     0.325032     0.415866     0.607150  Biso 1.000000     C
    C   1.0     0.325036     0.915865     0.607150  Biso 1.000000     C
    C   1.0     0.825030     0.415857     0.607154  Biso 1.000000     C
    C   1.0     0.825037     0.915864     0.607150  Biso 1.000000     C
    C   1.0     0.299829     0.342249     0.555731  Biso 1.000000     C
    C   1.0     0.299831     0.842249     0.555732  Biso 1.000000     C
    C   1.0     0.799821     0.342246     0.555725  Biso 1.000000     C
    C   1.0     0.799826     0.842250     0.555725  Biso 1.000000     C
    C   1.0     0.090832     0.174962     0.607150  Biso 1.000000     C
    C   1.0     0.090828     0.674955     0.607156  Biso 1.000000     C
    C   1.0     0.590817     0.174956     0.607156  Biso 1.000000     C
    C   1.0     0.590819     0.674953     0.607159  Biso 1.000000     C
    C   1.0     0.042424     0.200172     0.555725  Biso 1.000000     C
    C   1.0     0.042434     0.700175     0.555721  Biso 1.000000     C
    C   1.0     0.542421     0.200173     0.555721  Biso 1.000000     C
    C   1.0     0.542435     0.700182     0.555722  Biso 1.000000     C
    C   1.0     0.084132     0.409164     0.607155  Biso 1.000000     C
    C   1.0     0.084165     0.909215     0.607181  Biso 1.000000     C
    C   1.0     0.584134     0.409177     0.607157  Biso 1.000000     C
    C   1.0     0.584142     0.909180     0.607158  Biso 1.000000     C
    C   1.0     0.157755     0.457568     0.555745  Biso 1.000000     C
    C   1.0     0.157754     0.957551     0.555714  Biso 1.000000     C
    C   1.0     0.657750     0.457564     0.555734  Biso 1.000000     C
    C   1.0     0.657754     0.957568     0.555731  Biso 1.000000     C
    C   1.0     0.409174     0.084143     0.107160  Biso 1.000000     C
    C   1.0     0.409172     0.584140     0.107156  Biso 1.000000     C
    C   1.0     0.909173     0.084146     0.107162  Biso 1.000000     C
    C   1.0     0.909183     0.584149     0.107159  Biso 1.000000     C
    C   1.0     0.457563     0.157751     0.055729  Biso 1.000000     C
    C   1.0     0.457572     0.657750     0.055730  Biso 1.000000     C
    C   1.0     0.957558     0.157752     0.055728  Biso 1.000000     C
    C   1.0     0.957564     0.657751     0.055718  Biso 1.000000     C
    C   1.0     0.415861     0.325028     0.107153  Biso 1.000000     C
    C   1.0     0.415856     0.825035     0.107163  Biso 1.000000     C
    C   1.0     0.915848     0.325041     0.107163  Biso 1.000000     C
    C   1.0     0.915849     0.825041     0.107169  Biso 1.000000     C
    C   1.0     0.342251     0.299825     0.055724  Biso 1.000000     C
    C   1.0     0.342256     0.799818     0.055717  Biso 1.000000     C
    C   1.0     0.842252     0.299817     0.055708  Biso 1.000000     C
    C   1.0     0.842255     0.799815     0.055712  Biso 1.000000     C
    C   1.0     0.174966     0.090831     0.107151  Biso 1.000000     C
    C   1.0     0.174966     0.590825     0.107158  Biso 1.000000     C
    C   1.0     0.674964     0.090835     0.107153  Biso 1.000000     C
    C   1.0     0.674966     0.590826     0.107157  Biso 1.000000     C
    C   1.0     0.200171     0.042426     0.055716  Biso 1.000000     C
    C   1.0     0.200182     0.542430     0.055721  Biso 1.000000     C
    C   1.0     0.700166     0.042425     0.055721  Biso 1.000000     C
    C   1.0     0.700177     0.542428     0.055720  Biso 1.000000     C
    C   1.0     0.409166     0.084136     0.392852  Biso 1.000000     C
    C   1.0     0.409207     0.584152     0.392828  Biso 1.000000     C
    C   1.0     0.909183     0.084146     0.392841  Biso 1.000000     C
    C   1.0     0.909196     0.584143     0.392832  Biso 1.000000     C
    C   1.0     0.457569     0.157753     0.444268  Biso 1.000000     C
    C   1.0     0.457560     0.657747     0.444285  Biso 1.000000     C
    C   1.0     0.957558     0.157753     0.444278  Biso 1.000000     C
    C   1.0     0.957555     0.657743     0.444282  Biso 1.000000     C
    C   1.0     0.415852     0.325048     0.392838  Biso 1.000000     C
    C   1.0     0.415857     0.825035     0.392844  Biso 1.000000     C
    C   1.0     0.915857     0.325031     0.392856  Biso 1.000000     C
    C   1.0     0.915862     0.825031     0.392851  Biso 1.000000     C
    C   1.0     0.342253     0.299816     0.444291  Biso 1.000000     C
    C   1.0     0.342251     0.799817     0.444281  Biso 1.000000     C
    C   1.0     0.842243     0.299822     0.444280  Biso 1.000000     C
    C   1.0     0.842251     0.799825     0.444279  Biso 1.000000     C
    C   1.0     0.174951     0.090817     0.392841  Biso 1.000000     C
    C   1.0     0.174939     0.590772     0.392823  Biso 1.000000     C
    C   1.0     0.674944     0.090810     0.392840  Biso 1.000000     C
    C   1.0     0.674955     0.590811     0.392842  Biso 1.000000     C
    C   1.0     0.200179     0.042434     0.444280  Biso 1.000000     C
    C   1.0     0.200196     0.542445     0.444311  Biso 1.000000     C
    C   1.0     0.700170     0.042430     0.444288  Biso 1.000000     C
    C   1.0     0.700179     0.542430     0.444290  Biso 1.000000     C
    O   1.0     0.275580     0.406612     0.839579  Biso 1.000000     O
    O   1.0     0.275588     0.906621     0.839575  Biso 1.000000     O
    O   1.0     0.775573     0.406618     0.839578  Biso 1.000000     O
    O   1.0     0.775579     0.906616     0.839578  Biso 1.000000     O
    O   1.0     0.390424     0.480068     0.906718  Biso 1.000000     O
    O   1.0     0.390433     0.980071     0.906712  Biso 1.000000     O
    O   1.0     0.890415     0.480073     0.906719  Biso 1.000000     O
    O   1.0     0.890423     0.980069     0.906715  Biso 1.000000     O
    O   1.0     0.131037     0.224418     0.839584  Biso 1.000000     O
    O   1.0     0.131053     0.724420     0.839583  Biso 1.000000     O
    O   1.0     0.631037     0.224424     0.839588  Biso 1.000000     O
    O   1.0     0.631040     0.724418     0.839584  Biso 1.000000     O
    O   1.0     0.089638     0.109560     0.906712  Biso 1.000000     O
    O   1.0     0.089654     0.609562     0.906711  Biso 1.000000     O
    O   1.0     0.589642     0.109567     0.906716  Biso 1.000000     O
    O   1.0     0.589644     0.609559     0.906712  Biso 1.000000     O
    O   1.0     0.093400     0.368969     0.839581  Biso 1.000000     O
    O   1.0     0.093395     0.868952     0.839587  Biso 1.000000     O
    O   1.0     0.593391     0.368962     0.839584  Biso 1.000000     O
    O   1.0     0.593394     0.868961     0.839583  Biso 1.000000     O
    O   1.0     0.019930     0.410360     0.906718  Biso 1.000000     O
    O   1.0     0.019924     0.910343     0.906723  Biso 1.000000     O
    O   1.0     0.519923     0.410355     0.906722  Biso 1.000000     O
    O   1.0     0.519923     0.910352     0.906720  Biso 1.000000     O
    O   1.0     0.275577     0.406624     0.660419  Biso 1.000000     O
    O   1.0     0.275589     0.906622     0.660426  Biso 1.000000     O
    O   1.0     0.775568     0.406618     0.660415  Biso 1.000000     O
    O   1.0     0.775582     0.906620     0.660420  Biso 1.000000     O
    O   1.0     0.390426     0.480078     0.593283  Biso 1.000000     O
    O   1.0     0.390437     0.980074     0.593289  Biso 1.000000     O
    O   1.0     0.890415     0.480075     0.593278  Biso 1.000000     O
    O   1.0     0.890430     0.980077     0.593283  Biso 1.000000     O
    O   1.0     0.131049     0.224419     0.660413  Biso 1.000000     O
    O   1.0     0.131045     0.724418     0.660414  Biso 1.000000     O
    O   1.0     0.631041     0.224421     0.660411  Biso 1.000000     O
    O   1.0     0.631046     0.724418     0.660413  Biso 1.000000     O
    O   1.0     0.089644     0.109557     0.593288  Biso 1.000000     O
    O   1.0     0.089651     0.609557     0.593284  Biso 1.000000     O
    O   1.0     0.589644     0.109561     0.593283  Biso 1.000000     O
    O   1.0     0.589646     0.609557     0.593286  Biso 1.000000     O
    O   1.0     0.093380     0.368953     0.660422  Biso 1.000000     O
    O   1.0     0.093401     0.868960     0.660412  Biso 1.000000     O
    O   1.0     0.593382     0.368954     0.660413  Biso 1.000000     O
    O   1.0     0.593389     0.868956     0.660413  Biso 1.000000     O
    O   1.0     0.019918     0.410356     0.593286  Biso 1.000000     O
    O   1.0     0.019930     0.910353     0.593274  Biso 1.000000     O
    O   1.0     0.519913     0.410350     0.593276  Biso 1.000000     O
    O   1.0     0.519919     0.910349     0.593277  Biso 1.000000     O
    O   1.0     0.368961     0.093389     0.160426  Biso 1.000000     O
    O   1.0     0.368955     0.593387     0.160419  Biso 1.000000     O
    O   1.0     0.868954     0.093393     0.160422  Biso 1.000000     O
    O   1.0     0.868960     0.593396     0.160415  Biso 1.000000     O
    O   1.0     0.410356     0.019924     0.093288  Biso 1.000000     O
    O   1.0     0.410348     0.519920     0.093281  Biso 1.000000     O
    O   1.0     0.910344     0.019923     0.093283  Biso 1.000000     O
    O   1.0     0.910350     0.519925     0.093278  Biso 1.000000     O
    O   1.0     0.406621     0.275576     0.160424  Biso 1.000000     O
    O   1.0     0.406622     0.775573     0.160420  Biso 1.000000     O
    O   1.0     0.906614     0.275584     0.160424  Biso 1.000000     O
    O   1.0     0.906619     0.775577     0.160424  Biso 1.000000     O
    O   1.0     0.480073     0.390422     0.093286  Biso 1.000000     O
    O   1.0     0.480076     0.890418     0.093283  Biso 1.000000     O
    O   1.0     0.980064     0.390429     0.093286  Biso 1.000000     O
    O   1.0     0.980070     0.890421     0.093284  Biso 1.000000     O
    O   1.0     0.224419     0.131041     0.160418  Biso 1.000000     O
    O   1.0     0.224428     0.631051     0.160415  Biso 1.000000     O
    O   1.0     0.724417     0.131046     0.160419  Biso 1.000000     O
    O   1.0     0.724422     0.631043     0.160420  Biso 1.000000     O
    O   1.0     0.109561     0.089645     0.093290  Biso 1.000000     O
    O   1.0     0.109570     0.589651     0.093286  Biso 1.000000     O
    O   1.0     0.609561     0.089651     0.093290  Biso 1.000000     O
    O   1.0     0.609565     0.589645     0.093291  Biso 1.000000     O
    O   1.0     0.368961     0.093391     0.339583  Biso 1.000000     O
    O   1.0     0.368967     0.593391     0.339585  Biso 1.000000     O
    O   1.0     0.868956     0.093394     0.339589  Biso 1.000000     O
    O   1.0     0.868957     0.593384     0.339587  Biso 1.000000     O
    O   1.0     0.410356     0.019920     0.406717  Biso 1.000000     O
    O   1.0     0.410359     0.519923     0.406725  Biso 1.000000     O
    O   1.0     0.910346     0.019920     0.406724  Biso 1.000000     O
    O   1.0     0.910351     0.519915     0.406727  Biso 1.000000     O
    O   1.0     0.406615     0.275580     0.339585  Biso 1.000000     O
    O   1.0     0.406614     0.775571     0.339584  Biso 1.000000     O
    O   1.0     0.906614     0.275581     0.339583  Biso 1.000000     O
    O   1.0     0.906621     0.775572     0.339587  Biso 1.000000     O
    O   1.0     0.480072     0.390429     0.406722  Biso 1.000000     O
    O   1.0     0.480077     0.890418     0.406722  Biso 1.000000     O
    O   1.0     0.980068     0.390428     0.406718  Biso 1.000000     O
    O   1.0     0.980079     0.890419     0.406725  Biso 1.000000     O
    O   1.0     0.224411     0.131041     0.339583  Biso 1.000000     O
    O   1.0     0.224428     0.631033     0.339596  Biso 1.000000     O
    O   1.0     0.724411     0.131040     0.339588  Biso 1.000000     O
    O   1.0     0.724421     0.631038     0.339589  Biso 1.000000     O
    O   1.0     0.109550     0.089636     0.406711  Biso 1.000000     O
    O   1.0     0.109568     0.589638     0.406725  Biso 1.000000     O
    O   1.0     0.609551     0.089641     0.406716  Biso 1.000000     O
    O   1.0     0.609563     0.589645     0.406718  Biso 1.000000     O
    O   1.0     0.361496     0.361494     0.000003  Biso 1.000000     O
    O   1.0     0.361490     0.861494     0.000000  Biso 1.000000     O
    O   1.0     0.861492     0.361492    -0.000005  Biso 1.000000     O
    O   1.0     0.861489     0.861492     0.000003  Biso 1.000000     O
    O   1.0     0.000000     0.138513     0.000008  Biso 1.000000     O
    O   1.0     0.000011     0.638512     0.000003  Biso 1.000000     O
    O   1.0     0.499986     0.138506     0.000002  Biso 1.000000     O
    O   1.0     0.500007     0.638515     0.000000  Biso 1.000000     O
    O   1.0     0.138506    -0.000002    -0.000007  Biso 1.000000     O
    O   1.0     0.138513     0.499992     0.000003  Biso 1.000000     O
    O   1.0     0.638503    -0.000005    -0.000003  Biso 1.000000     O
    O   1.0     0.638512     0.499999     1.000000  Biso 1.000000     O
    O   1.0     0.361490     0.361494     0.500001  Biso 1.000000     O
    O   1.0     0.361486     0.861489     0.499996  Biso 1.000000     O
    O   1.0     0.861491     0.361488     0.500005  Biso 1.000000     O
    O   1.0     0.861490     0.861495     0.499998  Biso 1.000000     O
    O   1.0     0.000005     0.138514     0.499994  Biso 1.000000     O
    O   1.0     0.000010     0.638513     0.499995  Biso 1.000000     O
    O   1.0     0.499991     0.138509     0.499997  Biso 1.000000     O
    O   1.0     0.500008     0.638518     0.499999  Biso 1.000000     O
    O   1.0     0.138518     0.000007     0.500005  Biso 1.000000     O
    O   1.0     0.138511     0.499981     0.500008  Biso 1.000000     O
    O   1.0     0.638501    -0.000004     0.500006  Biso 1.000000     O
    O   1.0     0.638511     0.499993     0.500008  Biso 1.000000     O
   La   1.0     0.166666     0.333319     0.750029  Biso 1.000000    La
   La   1.0     0.166678     0.833331     0.750027  Biso 1.000000    La
   La   1.0     0.666659     0.333320     0.750032  Biso 1.000000    La
   La   1.0     0.666669     0.833324     0.750031  Biso 1.000000    La
   La   1.0     0.333321     0.166665     0.249973  Biso 1.000000    La
   La   1.0     0.333328     0.666661     0.249976  Biso 1.000000    La
   La   1.0     0.833316     0.166668     0.249970  Biso 1.000000    La
   La   1.0     0.833323     0.666664     0.249975  Biso 1.000000    La
   La   1.0    -0.000012    -0.000006     0.000002  Biso 1.000000    La
   La   1.0    -0.000004     0.499995     0.000002  Biso 1.000000    La
   La   1.0     0.499995     0.000001     0.000003  Biso 1.000000    La
   La   1.0     0.499998     0.499996     0.000003  Biso 1.000000    La
   La   1.0    -0.000003    -0.000002     0.499998  Biso 1.000000    La
   La   1.0    -0.000004     0.499987     0.500002  Biso 1.000000    La
   La   1.0     0.499989    -0.000005     0.500000  Biso 1.000000    La
   La   1.0     0.499994     0.499995     0.500000  Biso 1.000000    La
