#======================================================================

# CRYSTAL DATA

#----------------------------------------------------------------------

data_VESTA_phase_1


_pd_phase_name                         MOF
_cell_length_a                         18.28000
_cell_length_b                         14.29000
_cell_length_c                         15.32400
_cell_angle_alpha                      89.44300
_cell_angle_beta                       90.19500
_cell_angle_gamma                      107.34100
_symmetry_space_group_name_H-M         "P 1"
_symmetry_Int_Tables_number            1

loop_
_symmetry_equiv_pos_as_xyz
   "x, y, z"

loop_
   _atom_site_label
   _atom_site_occupancy
   _atom_site_fract_x
   _atom_site_fract_y
   _atom_site_fract_z
   _atom_site_adp_type
   _atom_site_B_iso_or_equiv
   _atom_site_type_symbol
    H   1.0     0.435463     0.404571     0.296420  Biso 1.000000     H
    H   1.0     0.935464     0.404571     0.296417  Biso 1.000000     H
    H   1.0     0.368053     0.090745     0.279093  Biso 1.000000     H
    H   1.0     0.868054     0.090745     0.279088  Biso 1.000000     H
    H   1.0     0.231399     0.087425     0.269538  Biso 1.000000     H
    H   1.0     0.731401     0.087426     0.269533  Biso 1.000000     H
    H   1.0     0.124999     0.404562     0.533511  Biso 1.000000     H
    H   1.0     0.624984     0.404544     0.533512  Biso 1.000000     H
    H   1.0     0.314632     0.094056     0.796689  Biso 1.000000     H
    H   1.0     0.814634     0.094056     0.796694  Biso 1.000000     H
    H   1.0     0.381834     0.408179     0.778548  Biso 1.000000     H
    H   1.0     0.881836     0.408179     0.778549  Biso 1.000000     H
    H   1.0     0.018449     0.411785     0.768906  Biso 1.000000     H
    H   1.0     0.518450     0.411785     0.768906  Biso 1.000000     H
    H   1.0     0.123499     0.093915     0.036731  Biso 1.000000     H
    H   1.0     0.623536     0.093950     0.036734  Biso 1.000000     H
    H   1.0     0.064527     0.595435     0.703601  Biso 1.000000     H
    H   1.0     0.564528     0.595435     0.703602  Biso 1.000000     H
    H   1.0     0.131938     0.909261     0.720927  Biso 1.000000     H
    H   1.0     0.631940     0.909261     0.720926  Biso 1.000000     H
    H   1.0     0.268591     0.912580     0.730483  Biso 1.000000     H
    H   1.0     0.768593     0.912580     0.730482  Biso 1.000000     H
    H   1.0     0.374983     0.595436     0.466512  Biso 1.000000     H
    H   1.0     0.874976     0.595427     0.466512  Biso 1.000000     H
    H   1.0     0.185352     0.905947     0.203331  Biso 1.000000     H
    H   1.0     0.685354     0.905947     0.203334  Biso 1.000000     H
    H   1.0     0.118149     0.591823     0.221470  Biso 1.000000     H
    H   1.0     0.618150     0.591823     0.221467  Biso 1.000000     H
    H   1.0     0.481534     0.588218     0.231107  Biso 1.000000     H
    H   1.0     0.981536     0.588219     0.231111  Biso 1.000000     H
    H   1.0     0.376422     0.906023     0.963285  Biso 1.000000     H
    H   1.0     0.876404     0.906004     0.963284  Biso 1.000000     H
    C   1.0     0.255338     0.243843     0.278046  Biso 1.000000     C
    C   1.0     0.755340     0.243844     0.278042  Biso 1.000000     C
    C   1.0     0.314198     0.335456     0.284928  Biso 1.000000     C
    C   1.0     0.814200     0.335457     0.284925  Biso 1.000000     C
    C   1.0     0.390705     0.334987     0.290856  Biso 1.000000     C
    C   1.0     0.890707     0.334987     0.290849  Biso 1.000000     C
    C   1.0     0.410870     0.248319     0.289762  Biso 1.000000     C
    C   1.0     0.910871     0.248318     0.289762  Biso 1.000000     C
    C   1.0     0.352549     0.158651     0.280506  Biso 1.000000     C
    C   1.0     0.852551     0.158652     0.280499  Biso 1.000000     C
    C   1.0     0.276661     0.156752     0.274806  Biso 1.000000     C
    C   1.0     0.776663     0.156753     0.274804  Biso 1.000000     C
    C   1.0     0.300047     0.432430     0.285126  Biso 1.000000     C
    C   1.0     0.800050     0.432430     0.285128  Biso 1.000000     C
    C   1.0     0.491828     0.250061     0.297518  Biso 1.000000     C
    C   1.0     0.991830     0.250061     0.297517  Biso 1.000000     C
    C   1.0     0.154002     0.346481     0.534769  Biso 1.000000     C
    C   1.0     0.653998     0.346475     0.534769  Biso 1.000000     C
    C   1.0    -0.005305     0.255238     0.777773  Biso 1.000000     C
    C   1.0     0.494696     0.255238     0.777773  Biso 1.000000     C
    C   1.0     0.435854     0.163458     0.784871  Biso 1.000000     C
    C   1.0     0.935856     0.163458     0.784876  Biso 1.000000     C
    C   1.0     0.359337     0.163779     0.790934  Biso 1.000000     C
    C   1.0     0.859339     0.163779     0.790936  Biso 1.000000     C
    C   1.0     0.339066     0.250411     0.789576  Biso 1.000000     C
    C   1.0     0.839067     0.250411     0.789579  Biso 1.000000     C
    C   1.0     0.397361     0.340261     0.780127  Biso 1.000000     C
    C   1.0     0.897363     0.340261     0.780126  Biso 1.000000     C
    C   1.0     0.473247     0.342314     0.774311  Biso 1.000000     C
    C   1.0     0.973249     0.342314     0.774315  Biso 1.000000     C
    C   1.0     0.450027     0.066456     0.785192  Biso 1.000000     C
    C   1.0     0.950028     0.066456     0.785193  Biso 1.000000     C
    C   1.0     0.258089     0.248514     0.797423  Biso 1.000000     C
    C   1.0     0.758091     0.248515     0.797425  Biso 1.000000     C
    C   1.0     0.095545     0.153035     0.035481  Biso 1.000000     C
    C   1.0     0.595557     0.153047     0.035482  Biso 1.000000     C
    C   1.0     0.244651     0.756162     0.721978  Biso 1.000000     C
    C   1.0     0.744653     0.756161     0.721976  Biso 1.000000     C
    C   1.0     0.185792     0.664549     0.715092  Biso 1.000000     C
    C   1.0     0.685793     0.664549     0.715094  Biso 1.000000     C
    C   1.0     0.109285     0.665019     0.709170  Biso 1.000000     C
    C   1.0     0.609286     0.665019     0.709168  Biso 1.000000     C
    C   1.0     0.089120     0.751687     0.710256  Biso 1.000000     C
    C   1.0     0.589122     0.751687     0.710258  Biso 1.000000     C
    C   1.0     0.147441     0.841354     0.719519  Biso 1.000000     C
    C   1.0     0.647443     0.841354     0.719516  Biso 1.000000     C
    C   1.0     0.223329     0.843253     0.725210  Biso 1.000000     C
    C   1.0     0.723331     0.843253     0.725213  Biso 1.000000     C
    C   1.0     0.199941     0.567575     0.714894  Biso 1.000000     C
    C   1.0     0.699943     0.567575     0.714895  Biso 1.000000     C
    C   1.0     0.008162     0.749945     0.702502  Biso 1.000000     C
    C   1.0     0.508163     0.749945     0.702504  Biso 1.000000     C
    C   1.0     0.345985     0.653521     0.465254  Biso 1.000000     C
    C   1.0     0.845984     0.653519     0.465254  Biso 1.000000     C
    C   1.0     0.505290     0.744766     0.222240  Biso 1.000000     C
    C   1.0     0.000000     0.744766     0.222245  Biso 1.000000     C
    C   1.0     0.064131     0.836546     0.215149  Biso 1.000000     C
    C   1.0     0.564133     0.836546     0.215151  Biso 1.000000     C
    C   1.0     0.140647     0.836224     0.209081  Biso 1.000000     C
    C   1.0     0.640648     0.836223     0.209076  Biso 1.000000     C
    C   1.0     0.160918     0.749592     0.210446  Biso 1.000000     C
    C   1.0     0.660920     0.749592     0.210449  Biso 1.000000     C
    C   1.0     0.102622     0.659741     0.219889  Biso 1.000000     C
    C   1.0     0.602623     0.659741     0.219882  Biso 1.000000     C
    C   1.0     0.026737     0.657689     0.225710  Biso 1.000000     C
    C   1.0     0.526738     0.657690     0.225713  Biso 1.000000     C
    C   1.0     0.049956     0.933546     0.214833  Biso 1.000000     C
    C   1.0     0.549957     0.933546     0.214837  Biso 1.000000     C
    C   1.0     0.241895     0.751488     0.202601  Biso 1.000000     C
    C   1.0     0.741896     0.751488     0.202603  Biso 1.000000     C
    C   1.0     0.404423     0.846948     0.964540  Biso 1.000000     C
    C   1.0     0.904418     0.846942     0.964539  Biso 1.000000     C
    O   1.0     0.180941     0.238592     0.274107  Biso 1.000000     O
    O   1.0     0.680942     0.238592     0.274106  Biso 1.000000     O
    O   1.0     0.235391     0.445347     0.303534  Biso 1.000000     O
    O   1.0     0.735392     0.445347     0.303533  Biso 1.000000     O
    O   1.0     0.357522     0.507381     0.266631  Biso 1.000000     O
    O   1.0     0.857523     0.507382     0.266629  Biso 1.000000     O
    O   1.0     0.042282     0.333538     0.311091  Biso 1.000000     O
    O   1.0     0.542284     0.333538     0.311093  Biso 1.000000     O
    O   1.0     0.507208     0.168682     0.291883  Biso 1.000000     O
    O   1.0     0.000000     0.168683     0.291882  Biso 1.000000     O
    O   1.0     0.165382     0.308879     0.463429  Biso 1.000000     O
    O   1.0     0.665385     0.308878     0.463428  Biso 1.000000     O
    O   1.0     0.174830     0.320002     0.607444  Biso 1.000000     O
    O   1.0     0.674833     0.320002     0.607444  Biso 1.000000     O
    O   1.0     0.069104     0.260686     0.773668  Biso 1.000000     O
    O   1.0     0.569106     0.260686     0.773668  Biso 1.000000     O
    O   1.0     0.014696     0.053198     0.803780  Biso 1.000000     O
    O   1.0     0.514698     0.053198     0.803780  Biso 1.000000     O
    O   1.0     0.392576     0.991881     0.766657  Biso 1.000000     O
    O   1.0     0.892577     0.991881     0.766658  Biso 1.000000     O
    O   1.0     0.207688     0.164774     0.811293  Biso 1.000000     O
    O   1.0     0.707690     0.164775     0.811294  Biso 1.000000     O
    O   1.0     0.242653     0.329963     0.791664  Biso 1.000000     O
    O   1.0     0.742655     0.329963     0.791664  Biso 1.000000     O
    O   1.0     0.084476     0.189374     0.962713  Biso 1.000000     O
    O   1.0     0.584476     0.189373     0.962713  Biso 1.000000     O
    O   1.0     0.075528     0.181904     0.106939  Biso 1.000000     O
    O   1.0     0.575527     0.181901     0.106939  Biso 1.000000     O
    O   1.0     0.319049     0.761412     0.725916  Biso 1.000000     O
    O   1.0     0.819050     0.761412     0.725916  Biso 1.000000     O
    O   1.0     0.264599     0.554657     0.696489  Biso 1.000000     O
    O   1.0     0.764600     0.554657     0.696489  Biso 1.000000     O
    O   1.0     0.142466     0.492624     0.733392  Biso 1.000000     O
    O   1.0     0.642468     0.492624     0.733392  Biso 1.000000     O
    O   1.0     0.457708     0.666468     0.688931  Biso 1.000000     O
    O   1.0     0.957709     0.666468     0.688931  Biso 1.000000     O
    O   1.0    -0.007218     0.831323     0.708141  Biso 1.000000     O
    O   1.0     0.492783     0.831323     0.708140  Biso 1.000000     O
    O   1.0     0.334608     0.691126     0.536594  Biso 1.000000     O
    O   1.0     0.834609     0.691126     0.536594  Biso 1.000000     O
    O   1.0     0.325159     0.680004     0.392579  Biso 1.000000     O
    O   1.0     0.825160     0.680005     0.392578  Biso 1.000000     O
    O   1.0     0.430880     0.739318     0.226353  Biso 1.000000     O
    O   1.0     0.930882     0.739318     0.226353  Biso 1.000000     O
    O   1.0     0.485288     0.946806     0.196241  Biso 1.000000     O
    O   1.0     0.985289     0.946806     0.196241  Biso 1.000000     O
    O   1.0     0.107409     0.008121     0.233364  Biso 1.000000     O
    O   1.0     0.607410     0.008121     0.233364  Biso 1.000000     O
    O   1.0     0.292296     0.835228     0.188727  Biso 1.000000     O
    O   1.0     0.792297     0.835228     0.188727  Biso 1.000000     O
    O   1.0     0.257331     0.670040     0.208359  Biso 1.000000     O
    O   1.0     0.757332     0.670040     0.208358  Biso 1.000000     O
    O   1.0     0.415515     0.810632     0.037310  Biso 1.000000     O
    O   1.0     0.915517     0.810633     0.037310  Biso 1.000000     O
    O   1.0     0.424467     0.818106     0.893085  Biso 1.000000     O
    O   1.0     0.924470     0.818107     0.893085  Biso 1.000000     O
   Zn   1.0     0.146122     0.337253     0.341018  Biso 1.000000    Zn
   Zn   1.0     0.646124     0.337253     0.341018  Biso 1.000000    Zn
   Zn   1.0     0.088130     0.135471     0.226007  Biso 1.000000    Zn
   Zn   1.0     0.588131     0.135471     0.226007  Biso 1.000000    Zn
   Zn   1.0     0.103904     0.160781     0.840995  Biso 1.000000    Zn
   Zn   1.0     0.603905     0.160782     0.840995  Biso 1.000000    Zn
   Zn   1.0     0.161978     0.365706     0.725962  Biso 1.000000    Zn
   Zn   1.0     0.661979     0.365706     0.725962  Biso 1.000000    Zn
   Zn   1.0     0.353867     0.662751     0.659004  Biso 1.000000    Zn
   Zn   1.0     0.853868     0.662751     0.659004  Biso 1.000000    Zn
   Zn   1.0     0.411860     0.864533     0.774016  Biso 1.000000    Zn
   Zn   1.0     0.911861     0.864533     0.774016  Biso 1.000000    Zn
   Zn   1.0     0.396080     0.839223     0.159027  Biso 1.000000    Zn
   Zn   1.0     0.896082     0.839222     0.159027  Biso 1.000000    Zn
   Zn   1.0     0.338009     0.634299     0.274060  Biso 1.000000    Zn
   Zn   1.0     0.838010     0.634299     0.274060  Biso 1.000000    Zn
