#======================================================================

# CRYSTAL DATA

#----------------------------------------------------------------------

data_VESTA_phase_1


_pd_phase_name                         MOF
_cell_length_a                         14.95000
_cell_length_b                         14.89200
_cell_length_c                         13.08100
_cell_angle_alpha                      90.00000
_cell_angle_beta                       90.00000
_cell_angle_gamma                      90.00000
_symmetry_space_group_name_H-M         "P 1"
_symmetry_Int_Tables_number            1

loop_
_symmetry_equiv_pos_as_xyz
   "x, y, z"

loop_
   _atom_site_label
   _atom_site_occupancy
   _atom_site_fract_x
   _atom_site_fract_y
   _atom_site_fract_z
   _atom_site_adp_type
   _atom_site_B_iso_or_equiv
   _atom_site_type_symbol
    C   1.0     0.337612    -0.001127     0.901300  Biso 1.000000     C
    C   1.0     0.337455     0.501249     0.901291  Biso 1.000000     C
    C   1.0     0.837522    -0.001246     0.901382  Biso 1.000000     C
    C   1.0     0.837508     0.501390     0.901307  Biso 1.000000     C
    C   1.0     0.162765    -0.001310     0.901354  Biso 1.000000     C
    C   1.0     0.162605     0.501341     0.901423  Biso 1.000000     C
    C   1.0     0.662713    -0.001481     0.901399  Biso 1.000000     C
    C   1.0     0.662693     0.501411     0.901485  Biso 1.000000     C
    C   1.0     0.001304     0.337587     0.401081  Biso 1.000000     C
    C   1.0     0.001370     0.837711     0.401175  Biso 1.000000     C
    C   1.0     0.501325     0.337612     0.401072  Biso 1.000000     C
    C   1.0     0.498590     0.837585     0.401203  Biso 1.000000     C
    C   1.0     0.001404     0.162468     0.401066  Biso 1.000000     C
    C   1.0     0.001420     0.662523     0.401203  Biso 1.000000     C
    C   1.0     0.501415     0.162489     0.401078  Biso 1.000000     C
    C   1.0     0.498635     0.662399     0.401169  Biso 1.000000     C
    C   1.0     0.162719    -0.001318     0.098442  Biso 1.000000     C
    C   1.0     0.162656     0.501322     0.098542  Biso 1.000000     C
    C   1.0     0.662686    -0.001461     0.098665  Biso 1.000000     C
    C   1.0     0.662762     0.501428     0.098697  Biso 1.000000     C
    C   1.0     0.337583    -0.001152     0.098595  Biso 1.000000     C
    C   1.0     0.337514     0.501224     0.098557  Biso 1.000000     C
    C   1.0     0.837483    -0.001237     0.098774  Biso 1.000000     C
    C   1.0     0.837552     0.501403     0.098758  Biso 1.000000     C
    C   1.0     0.001265     0.337594     0.598903  Biso 1.000000     C
    C   1.0     0.001305     0.837715     0.598806  Biso 1.000000     C
    C   1.0     0.501382     0.337600     0.598931  Biso 1.000000     C
    C   1.0     0.498618     0.837574     0.598795  Biso 1.000000     C
    C   1.0     0.001322     0.162474     0.598925  Biso 1.000000     C
    C   1.0     0.001374     0.662526     0.598789  Biso 1.000000     C
    C   1.0     0.501484     0.162478     0.598891  Biso 1.000000     C
    C   1.0     0.498699     0.662386     0.598803  Biso 1.000000     C
    N   1.0     0.394169    -0.000260     0.839571  Biso 1.000000     N
    N   1.0     0.394036     0.500420     0.839585  Biso 1.000000     N
    N   1.0     0.894031    -0.000543     0.839581  Biso 1.000000     N
    N   1.0     0.893946     0.500729     0.839420  Biso 1.000000     N
    N   1.0     0.106027    -0.000579     0.839833  Biso 1.000000     N
    N   1.0     0.105898     0.500600     0.839868  Biso 1.000000     N
    N   1.0     0.606122    -0.000949     0.839692  Biso 1.000000     N
    N   1.0     0.606031     0.500807     0.839865  Biso 1.000000     N
    N   1.0     0.000646     0.393913     0.338793  Biso 1.000000     N
    N   1.0     0.000760     0.894129     0.339007  Biso 1.000000     N
    N   1.0     0.500720     0.393910     0.338750  Biso 1.000000     N
    N   1.0     0.499238     0.894066     0.339106  Biso 1.000000     N
    N   1.0     0.000808     0.106162     0.338752  Biso 1.000000     N
    N   1.0     0.000823     0.606026     0.339125  Biso 1.000000     N
    N   1.0     0.500848     0.106146     0.338807  Biso 1.000000     N
    N   1.0     0.499288     0.605972     0.339011  Biso 1.000000     N
    N   1.0     0.105976    -0.000585     0.159958  Biso 1.000000     N
    N   1.0     0.105977     0.500585     0.160131  Biso 1.000000     N
    N   1.0     0.606064    -0.000914     0.160332  Biso 1.000000     N
    N   1.0     0.606116     0.500835     0.160335  Biso 1.000000     N
    N   1.0     0.394115    -0.000304     0.160359  Biso 1.000000     N
    N   1.0     0.394116     0.500376     0.160239  Biso 1.000000     N
    N   1.0     0.893979    -0.000537     0.160588  Biso 1.000000     N
    N   1.0     0.894017     0.500747     0.160607  Biso 1.000000     N
    N   1.0     0.000595     0.393921     0.661190  Biso 1.000000     N
    N   1.0     0.000645     0.894137     0.660970  Biso 1.000000     N
    N   1.0     0.500808     0.393889     0.661263  Biso 1.000000     N
    N   1.0     0.499276     0.894051     0.660896  Biso 1.000000     N
    N   1.0     0.000670     0.106170     0.661241  Biso 1.000000     N
    N   1.0     0.000747     0.606035     0.660875  Biso 1.000000     N
    N   1.0     0.500961     0.106130     0.661156  Biso 1.000000     N
    N   1.0     0.499400     0.605954     0.660955  Biso 1.000000     N
   Ni   1.0     0.250254    -0.001762    -0.000078  Biso 1.000000    Ni
   Ni   1.0     0.250101     0.501753    -0.000042  Biso 1.000000    Ni
   Ni   1.0     0.750151    -0.001839     0.000077  Biso 1.000000    Ni
   Ni   1.0     0.750210     0.501790     0.000083  Biso 1.000000    Ni
   Ni   1.0     0.001784     0.250028     0.499993  Biso 1.000000    Ni
   Ni   1.0     0.001821     0.750151     0.499993  Biso 1.000000    Ni
   Ni   1.0     0.501789     0.250064     0.499992  Biso 1.000000    Ni
   Ni   1.0     0.498225     0.749967     0.499992  Biso 1.000000    Ni
   Zn   1.0     0.000078     0.000021     0.750785  Biso 1.000000    Zn
   Zn   1.0     0.000049     0.500070     0.750712  Biso 1.000000    Zn
   Zn   1.0     0.500115    -0.000017     0.750705  Biso 1.000000    Zn
   Zn   1.0     0.500074     0.500032     0.750793  Biso 1.000000    Zn
   Zn   1.0     0.000125     0.000018     0.249196  Biso 1.000000    Zn
   Zn   1.0     0.000105     0.500067     0.249282  Biso 1.000000    Zn
   Zn   1.0     0.500059    -0.000016     0.249275  Biso 1.000000    Zn
   Zn   1.0     0.500050     0.500034     0.249200  Biso 1.000000    Zn
