#======================================================================

# CRYSTAL DATA

#----------------------------------------------------------------------

data_VESTA_phase_1


_pd_phase_name                         MOF
_cell_length_a                         15.55600
_cell_length_b                         21.85700
_cell_length_c                         21.84200
_cell_angle_alpha                      119.90100
_cell_angle_beta                       89.95200
_cell_angle_gamma                      90.04400
_symmetry_space_group_name_H-M         "P 1"
_symmetry_Int_Tables_number            1

loop_
_symmetry_equiv_pos_as_xyz
   "x, y, z"

loop_
   _atom_site_label
   _atom_site_occupancy
   _atom_site_fract_x
   _atom_site_fract_y
   _atom_site_fract_z
   _atom_site_adp_type
   _atom_site_B_iso_or_equiv
   _atom_site_type_symbol
    H   1.0     0.236093     0.351433     0.417023  Biso 1.000000     H
    H   1.0     0.736098     0.351422     0.417031  Biso 1.000000     H
    H   1.0     0.191773     0.329926     0.334094  Biso 1.000000     H
    H   1.0     0.691781     0.329917     0.334101  Biso 1.000000     H
    H   1.0     0.180345     0.270294     0.367534  Biso 1.000000     H
    H   1.0     0.680347     0.270286     0.367539  Biso 1.000000     H
    H   1.0     0.061529     0.277361     0.429720  Biso 1.000000     H
    H   1.0     0.561524     0.277352     0.429718  Biso 1.000000     H
    H   1.0     0.466818     0.207996     0.409946  Biso 1.000000     H
    H   1.0     0.966829     0.208001     0.409946  Biso 1.000000     H
    H   1.0     0.361726     0.131125     0.421358  Biso 1.000000     H
    H   1.0     0.861732     0.131131     0.421354  Biso 1.000000     H
    H   1.0     0.219544     0.313984     0.573306  Biso 1.000000     H
    H   1.0     0.719555     0.313992     0.573304  Biso 1.000000     H
    H   1.0     0.326821     0.390982     0.561470  Biso 1.000000     H
    H   1.0     0.826834     0.390989     0.561469  Biso 1.000000     H
    H   1.0     0.301510     0.079657     0.471274  Biso 1.000000     H
    H   1.0     0.801519     0.079662     0.471271  Biso 1.000000     H
    H   1.0     0.184355     0.001271     0.467605  Biso 1.000000     H
    H   1.0     0.684362     0.001276     0.467597  Biso 1.000000     H
    H   1.0     0.000512     0.156550     0.524091  Biso 1.000000     H
    H   1.0     0.500523     0.156560     0.524095  Biso 1.000000     H
    H   1.0     0.107842     0.241858     0.525835  Biso 1.000000     H
    H   1.0     0.607856     0.241869     0.525843  Biso 1.000000     H
    H   1.0     0.235894     0.065963     0.648931  Biso 1.000000     H
    H   1.0     0.735903     0.065976     0.648920  Biso 1.000000     H
    H   1.0     0.191536     0.000000     0.670701  Biso 1.000000     H
    H   1.0     0.691554     0.000000     0.670690  Biso 1.000000     H
    H   1.0     0.180115     0.097583     0.730145  Biso 1.000000     H
    H   1.0     0.680129     0.097593     0.730137  Biso 1.000000     H
    H   1.0     0.061189     0.152304     0.722886  Biso 1.000000     H
    H   1.0     0.561186     0.152302     0.722889  Biso 1.000000     H
    H   1.0     0.466641     0.201972     0.792152  Biso 1.000000     H
    H   1.0     0.966642     0.201962     0.792149  Biso 1.000000     H
    H   1.0     0.361693     0.290133     0.868880  Biso 1.000000     H
    H   1.0     0.861694     0.290127     0.868874  Biso 1.000000     H
    H   1.0     0.219449     0.258832     0.685689  Biso 1.000000     H
    H   1.0     0.719470     0.258836     0.685679  Biso 1.000000     H
    H   1.0     0.326597     0.170131     0.608826  Biso 1.000000     H
    H   1.0     0.826615     0.170131     0.608819  Biso 1.000000     H
    H   1.0     0.301584     0.391394     0.920078  Biso 1.000000     H
    H   1.0     0.801585     0.391382     0.920076  Biso 1.000000     H
    H   1.0     0.184622     0.466204     0.998323  Biso 1.000000     H
    H   1.0     0.684619     0.466186     0.998319  Biso 1.000000     H
    H   1.0     0.000644     0.367362     0.843091  Biso 1.000000     H
    H   1.0     0.500653     0.367362     0.843073  Biso 1.000000     H
    H   1.0     0.107789     0.283752     0.757961  Biso 1.000000     H
    H   1.0     0.607801     0.283756     0.757945  Biso 1.000000     H
    H   1.0     0.236110     0.582987     0.934001  Biso 1.000000     H
    H   1.0     0.736121     0.582962     0.933986  Biso 1.000000     H
    H   1.0     0.191782     0.665830    -0.004740  Biso 1.000000     H
    H   1.0     0.691800     0.665810    -0.004760  Biso 1.000000     H
    H   1.0     0.180441     0.632536     0.902277  Biso 1.000000     H
    H   1.0     0.680461     0.632508     0.902254  Biso 1.000000     H
    H   1.0     0.061460     0.570514     0.847445  Biso 1.000000     H
    H   1.0     0.561463     0.570510     0.847438  Biso 1.000000     H
    H   1.0     0.466709     0.590073     0.797680  Biso 1.000000     H
    H   1.0     0.966708     0.590081     0.797694  Biso 1.000000     H
    H   1.0     0.361642     0.578556     0.709451  Biso 1.000000     H
    H   1.0     0.861647     0.578553     0.709456  Biso 1.000000     H
    H   1.0     0.219544     0.426750     0.741214  Biso 1.000000     H
    H   1.0     0.719573     0.426726     0.741200  Biso 1.000000     H
    H   1.0     0.326817     0.438656     0.829955  Biso 1.000000     H
    H   1.0     0.826839     0.438645     0.829951  Biso 1.000000     H
    H   1.0     0.301510     0.528490     0.608201  Biso 1.000000     H
    H   1.0     0.801516     0.528499     0.608213  Biso 1.000000     H
    H   1.0     0.184439     0.532028     0.533425  Biso 1.000000     H
    H   1.0     0.684441     0.532042     0.533442  Biso 1.000000     H
    H   1.0     0.000500     0.475675     0.632712  Biso 1.000000     H
    H   1.0     0.500513     0.475658     0.632710  Biso 1.000000     H
    H   1.0     0.107738     0.474078     0.716337  Biso 1.000000     H
    H   1.0     0.607753     0.474059     0.716334  Biso 1.000000     H
    H   1.0     0.263921     0.648543     0.582961  Biso 1.000000     H
    H   1.0     0.763937     0.648576     0.583005  Biso 1.000000     H
    H   1.0     0.308236     0.670059     0.665894  Biso 1.000000     H
    H   1.0     0.808267     0.670066     0.665926  Biso 1.000000     H
    H   1.0     0.319665     0.729684     0.632447  Biso 1.000000     H
    H   1.0     0.819699     0.729707     0.632500  Biso 1.000000     H
    H   1.0     0.438490     0.722620     0.570274  Biso 1.000000     H
    H   1.0     0.938508     0.722638     0.570304  Biso 1.000000     H
    H   1.0     0.033198     0.791992     0.590065  Biso 1.000000     H
    H   1.0     0.533198     0.791979     0.590050  Biso 1.000000     H
    H   1.0     0.138286     0.868863     0.578650  Biso 1.000000     H
    H   1.0     0.638295     0.868852     0.578646  Biso 1.000000     H
    H   1.0     0.280470     0.686005     0.426703  Biso 1.000000     H
    H   1.0     0.780481     0.685994     0.426701  Biso 1.000000     H
    H   1.0     0.173195     0.609006     0.438542  Biso 1.000000     H
    H   1.0     0.673203     0.608994     0.438533  Biso 1.000000     H
    H   1.0     0.198507     0.920334     0.528742  Biso 1.000000     H
    H   1.0     0.698508     0.920321     0.528724  Biso 1.000000     H
    H   1.0     0.315663     0.998719     0.532413  Biso 1.000000     H
    H   1.0     0.815663     0.998707     0.532396  Biso 1.000000     H
    H   1.0     0.499504     0.843438     0.475920  Biso 1.000000     H
    H   1.0     0.999506     0.843428     0.475910  Biso 1.000000     H
    H   1.0     0.392173     0.758129     0.474176  Biso 1.000000     H
    H   1.0     0.892175     0.758119     0.474164  Biso 1.000000     H
    H   1.0     0.264117     0.934021     0.351086  Biso 1.000000     H
    H   1.0     0.764131     0.934016     0.351073  Biso 1.000000     H
    H   1.0     0.308468    -0.004671     0.329313  Biso 1.000000     H
    H   1.0     0.808486    -0.004669     0.329312  Biso 1.000000     H
    H   1.0     0.319889     0.902400     0.269868  Biso 1.000000     H
    H   1.0     0.819912     0.902404     0.269860  Biso 1.000000     H
    H   1.0     0.438827     0.847687     0.277119  Biso 1.000000     H
    H   1.0     0.938842     0.847685     0.277116  Biso 1.000000     H
    H   1.0     0.033379     0.798018     0.207854  Biso 1.000000     H
    H   1.0     0.533380     0.798025     0.207854  Biso 1.000000     H
    H   1.0     0.138327     0.709855     0.131126  Biso 1.000000     H
    H   1.0     0.638329     0.709861     0.131127  Biso 1.000000     H
    H   1.0     0.280564     0.741152     0.314319  Biso 1.000000     H
    H   1.0     0.780558     0.741151     0.314320  Biso 1.000000     H
    H   1.0     0.173417     0.829854     0.391181  Biso 1.000000     H
    H   1.0     0.673412     0.829854     0.391182  Biso 1.000000     H
    H   1.0     0.198436     0.608599     0.079925  Biso 1.000000     H
    H   1.0     0.698436     0.608598     0.079926  Biso 1.000000     H
    H   1.0     0.315399     0.533794     0.001678  Biso 1.000000     H
    H   1.0     0.815402     0.533790     0.001685  Biso 1.000000     H
    H   1.0     0.499373     0.632623     0.156917  Biso 1.000000     H
    H   1.0     0.999370     0.632625     0.156928  Biso 1.000000     H
    H   1.0     0.392227     0.716229     0.242049  Biso 1.000000     H
    H   1.0     0.892221     0.716233     0.242055  Biso 1.000000     H
    H   1.0     0.263902     0.417020     0.066008  Biso 1.000000     H
    H   1.0     0.763920     0.417000     0.066009  Biso 1.000000     H
    H   1.0     0.308222     0.334171     0.000000  Biso 1.000000     H
    H   1.0     0.808241     0.334157     0.000000  Biso 1.000000     H
    H   1.0     0.319561     0.367474     0.097739  Biso 1.000000     H
    H   1.0     0.819589     0.367444     0.097725  Biso 1.000000     H
    H   1.0     0.438556     0.429478     0.152560  Biso 1.000000     H
    H   1.0     0.938575     0.429458     0.152552  Biso 1.000000     H
    H   1.0     0.033320     0.409900     0.202312  Biso 1.000000     H
    H   1.0     0.533315     0.409906     0.202309  Biso 1.000000     H
    H   1.0     0.138387     0.421422     0.290542  Biso 1.000000     H
    H   1.0     0.638380     0.421425     0.290541  Biso 1.000000     H
    H   1.0     0.280466     0.573244     0.258792  Biso 1.000000     H
    H   1.0     0.780464     0.573248     0.258796  Biso 1.000000     H
    H   1.0     0.173193     0.561334     0.170050  Biso 1.000000     H
    H   1.0     0.673195     0.561338     0.170050  Biso 1.000000     H
    H   1.0     0.198510     0.471490     0.391795  Biso 1.000000     H
    H   1.0     0.698509     0.471486     0.391791  Biso 1.000000     H
    H   1.0     0.315583     0.467947     0.466568  Biso 1.000000     H
    H   1.0     0.815582     0.467950     0.466566  Biso 1.000000     H
    H   1.0     0.499518     0.524315     0.367291  Biso 1.000000     H
    H   1.0     0.999514     0.524322     0.367292  Biso 1.000000     H
    H   1.0     0.392280     0.525915     0.283668  Biso 1.000000     H
    H   1.0     0.892276     0.525917     0.283665  Biso 1.000000     H
    C   1.0     0.181005     0.325992     0.381712  Biso 1.000000     C
    C   1.0     0.681010     0.325983     0.381719  Biso 1.000000     C
    C   1.0     0.099285     0.364504     0.418435  Biso 1.000000     C
    C   1.0     0.599290     0.364497     0.418441  Biso 1.000000     C
    C   1.0     0.042549     0.330213     0.442217  Biso 1.000000     C
    C   1.0     0.542546     0.330205     0.442217  Biso 1.000000     C
    C   1.0     0.462772     0.355268     0.476253  Biso 1.000000     C
    C   1.0     0.962778     0.355269     0.476239  Biso 1.000000     C
    C   1.0     0.404533     0.305681     0.485397  Biso 1.000000     C
    C   1.0     0.904544     0.305688     0.485397  Biso 1.000000     C
    C   1.0     0.413760     0.231955     0.446925  Biso 1.000000     C
    C   1.0     0.913776     0.231962     0.446928  Biso 1.000000     C
    C   1.0     0.353700     0.188150     0.452959  Biso 1.000000     C
    C   1.0     0.853711     0.188156     0.452956  Biso 1.000000     C
    C   1.0     0.281503     0.216394     0.497233  Biso 1.000000     C
    C   1.0     0.781514     0.216400     0.497231  Biso 1.000000     C
    C   1.0     0.273547     0.290273     0.537171  Biso 1.000000     C
    C   1.0     0.773557     0.290278     0.537169  Biso 1.000000     C
    C   1.0     0.333943     0.333906     0.531305  Biso 1.000000     C
    C   1.0     0.833958     0.333913     0.531309  Biso 1.000000     C
    C   1.0     0.215294     0.168935     0.498900  Biso 1.000000     C
    C   1.0     0.715304     0.168942     0.498898  Biso 1.000000     C
    C   1.0     0.235819     0.099822     0.482750  Biso 1.000000     C
    C   1.0     0.735830     0.099829     0.482750  Biso 1.000000     C
    C   1.0     0.171012     0.055484     0.481140  Biso 1.000000     C
    C   1.0     0.671021     0.055489     0.481132  Biso 1.000000     C
    C   1.0     0.068008     0.141922     0.512394  Biso 1.000000     C
    C   1.0     0.568019     0.141930     0.512395  Biso 1.000000     C
    C   1.0     0.128689     0.189555     0.514248  Biso 1.000000     C
    C   1.0     0.628700     0.189564     0.514254  Biso 1.000000     C
    C   1.0     0.180785     0.056094     0.674458  Biso 1.000000     C
    C   1.0     0.680799     0.056105     0.674450  Biso 1.000000     C
    C   1.0     0.099105     0.054171     0.635806  Biso 1.000000     C
    C   1.0     0.599111     0.054177     0.635803  Biso 1.000000     C
    C   1.0     0.042300     0.112034     0.669990  Biso 1.000000     C
    C   1.0     0.542301     0.112037     0.669990  Biso 1.000000     C
    C   1.0     0.462611     0.120948     0.644770  Biso 1.000000     C
    C   1.0     0.962618     0.120939     0.644769  Biso 1.000000     C
    C   1.0     0.404355     0.179533     0.694281  Biso 1.000000     C
    C   1.0     0.904362     0.179526     0.694276  Biso 1.000000     C
    C   1.0     0.413598     0.214860     0.768069  Biso 1.000000     C
    C   1.0     0.913607     0.214857     0.768064  Biso 1.000000     C
    C   1.0     0.353606     0.264641     0.811807  Biso 1.000000     C
    C   1.0     0.853608     0.264632     0.811801  Biso 1.000000     C
    C   1.0     0.281431     0.280568     0.783452  Biso 1.000000     C
    C   1.0     0.781443     0.280569     0.783445  Biso 1.000000     C
    C   1.0     0.273431     0.246517     0.709510  Biso 1.000000     C
    C   1.0     0.773443     0.246514     0.709502  Biso 1.000000     C
    C   1.0     0.333766     0.197082     0.665942  Biso 1.000000     C
    C   1.0     0.833784     0.197084     0.665936  Biso 1.000000     C
    C   1.0     0.215314     0.329709     0.830836  Biso 1.000000     C
    C   1.0     0.715320     0.329703     0.830826  Biso 1.000000     C
    C   1.0     0.235896     0.382704     0.899894  Biso 1.000000     C
    C   1.0     0.735900     0.382694     0.899886  Biso 1.000000     C
    C   1.0     0.171173     0.425505     0.944159  Biso 1.000000     C
    C   1.0     0.671176     0.425495     0.944150  Biso 1.000000     C
    C   1.0     0.068123     0.370319     0.857771  Biso 1.000000     C
    C   1.0     0.568131     0.370321     0.857757  Biso 1.000000     C
    C   1.0     0.128711     0.324483     0.810212  Biso 1.000000     C
    C   1.0     0.628719     0.324483     0.810199  Biso 1.000000     C
    C   1.0     0.181033     0.618292     0.943823  Biso 1.000000     C
    C   1.0     0.681050     0.618270     0.943805  Biso 1.000000     C
    C   1.0     0.099299     0.581546     0.945745  Biso 1.000000     C
    C   1.0     0.599307     0.581540     0.945737  Biso 1.000000     C
    C   1.0     0.042503     0.557925     0.887831  Biso 1.000000     C
    C   1.0     0.542510     0.557918     0.887822  Biso 1.000000     C
    C   1.0     0.462754     0.523862     0.879013  Biso 1.000000     C
    C   1.0     0.962766     0.523855     0.879015  Biso 1.000000     C
    C   1.0     0.404492     0.514688     0.820335  Biso 1.000000     C
    C   1.0     0.904499     0.514692     0.820345  Biso 1.000000     C
    C   1.0     0.413674     0.553105     0.784871  Biso 1.000000     C
    C   1.0     0.913681     0.553106     0.784877  Biso 1.000000     C
    C   1.0     0.353613     0.547019     0.735064  Biso 1.000000     C
    C   1.0     0.853616     0.547022     0.735074  Biso 1.000000     C
    C   1.0     0.281438     0.502748     0.719269  Biso 1.000000     C
    C   1.0     0.781456     0.502732     0.719262  Biso 1.000000     C
    C   1.0     0.273523     0.462878     0.753434  Biso 1.000000     C
    C   1.0     0.773539     0.462869     0.753434  Biso 1.000000     C
    C   1.0     0.333927     0.468782     0.802889  Biso 1.000000     C
    C   1.0     0.833947     0.468773     0.802886  Biso 1.000000     C
    C   1.0     0.215248     0.500963     0.670116  Biso 1.000000     C
    C   1.0     0.715256     0.500956     0.670120  Biso 1.000000     C
    C   1.0     0.235810     0.517007     0.616977  Biso 1.000000     C
    C   1.0     0.735818     0.517011     0.616989  Biso 1.000000     C
    C   1.0     0.171046     0.518541     0.574215  Biso 1.000000     C
    C   1.0     0.671055     0.518537     0.574222  Biso 1.000000     C
    C   1.0     0.067999     0.487365     0.629667  Biso 1.000000     C
    C   1.0     0.568012     0.487345     0.629661  Biso 1.000000     C
    C   1.0     0.128635     0.485596     0.675495  Biso 1.000000     C
    C   1.0     0.628644     0.485583     0.675495  Biso 1.000000     C
    C   1.0     0.319006     0.673988     0.618274  Biso 1.000000     C
    C   1.0     0.819032     0.674007     0.618311  Biso 1.000000     C
    C   1.0     0.400733     0.635480     0.581564  Biso 1.000000     C
    C   1.0     0.900739     0.635485     0.581566  Biso 1.000000     C
    C   1.0     0.457468     0.669767     0.557776  Biso 1.000000     C
    C   1.0     0.957488     0.669785     0.557803  Biso 1.000000     C
    C   1.0     0.037241     0.644716     0.523750  Biso 1.000000     C
    C   1.0     0.537254     0.644713     0.523761  Biso 1.000000     C
    C   1.0     0.095486     0.694307     0.514617  Biso 1.000000     C
    C   1.0     0.595486     0.694294     0.514600  Biso 1.000000     C
    C   1.0     0.086254     0.768033     0.553086  Biso 1.000000     C
    C   1.0     0.586255     0.768020     0.553071  Biso 1.000000     C
    C   1.0     0.146316     0.811838     0.547054  Biso 1.000000     C
    C   1.0     0.646316     0.811826     0.547041  Biso 1.000000     C
    C   1.0     0.218509     0.783595     0.502775  Biso 1.000000     C
    C   1.0     0.718518     0.783584     0.502772  Biso 1.000000     C
    C   1.0     0.226470     0.709716     0.462842  Biso 1.000000     C
    C   1.0     0.726474     0.709706     0.462831  Biso 1.000000     C
    C   1.0     0.166073     0.666083     0.468706  Biso 1.000000     C
    C   1.0     0.666077     0.666070     0.468693  Biso 1.000000     C
    C   1.0     0.284723     0.831053     0.501112  Biso 1.000000     C
    C   1.0     0.784724     0.831044     0.501102  Biso 1.000000     C
    C   1.0     0.264197     0.900167     0.517265  Biso 1.000000     C
    C   1.0     0.764198     0.900155     0.517248  Biso 1.000000     C
    C   1.0     0.329003     0.944504     0.518871  Biso 1.000000     C
    C   1.0     0.829008     0.944496     0.518867  Biso 1.000000     C
    C   1.0     0.432007     0.858065     0.487613  Biso 1.000000     C
    C   1.0     0.932011     0.858057     0.487612  Biso 1.000000     C
    C   1.0     0.371328     0.810434     0.485764  Biso 1.000000     C
    C   1.0     0.871328     0.810422     0.485750  Biso 1.000000     C
    C   1.0     0.319222     0.943890     0.325555  Biso 1.000000     C
    C   1.0     0.819238     0.943889     0.325549  Biso 1.000000     C
    C   1.0     0.400908     0.945817     0.364202  Biso 1.000000     C
    C   1.0     0.900921     0.945814     0.364199  Biso 1.000000     C
    C   1.0     0.457715     0.887954     0.330016  Biso 1.000000     C
    C   1.0     0.957726     0.887950     0.330015  Biso 1.000000     C
    C   1.0     0.037408     0.879043     0.355234  Biso 1.000000     C
    C   1.0     0.537409     0.879048     0.355234  Biso 1.000000     C
    C   1.0     0.095664     0.820456     0.305726  Biso 1.000000     C
    C   1.0     0.595661     0.820458     0.305726  Biso 1.000000     C
    C   1.0     0.086417     0.785126     0.231938  Biso 1.000000     C
    C   1.0     0.586419     0.785132     0.231938  Biso 1.000000     C
    C   1.0     0.146414     0.735350     0.188200  Biso 1.000000     C
    C   1.0     0.646412     0.735351     0.188200  Biso 1.000000     C
    C   1.0     0.218583     0.719416     0.216554  Biso 1.000000     C
    C   1.0     0.718583     0.719420     0.216555  Biso 1.000000     C
    C   1.0     0.226586     0.753470     0.290496  Biso 1.000000     C
    C   1.0     0.726579     0.753469     0.290498  Biso 1.000000     C
    C   1.0     0.166247     0.802901     0.334064  Biso 1.000000     C
    C   1.0     0.666244     0.802904     0.334066  Biso 1.000000     C
    C   1.0     0.284704     0.670280     0.169171  Biso 1.000000     C
    C   1.0     0.784701     0.670280     0.169173  Biso 1.000000     C
    C   1.0     0.264122     0.617287     0.100112  Biso 1.000000     C
    C   1.0     0.764122     0.617286     0.100114  Biso 1.000000     C
    C   1.0     0.328845     0.574488     0.055846  Biso 1.000000     C
    C   1.0     0.828848     0.574488     0.055851  Biso 1.000000     C
    C   1.0     0.431894     0.629665     0.142236  Biso 1.000000     C
    C   1.0     0.931892     0.629669     0.142244  Biso 1.000000     C
    C   1.0     0.371306     0.675501     0.189795  Biso 1.000000     C
    C   1.0     0.871302     0.675504     0.189801  Biso 1.000000     C
    C   1.0     0.318973     0.381712     0.056189  Biso 1.000000     C
    C   1.0     0.818993     0.381691     0.056181  Biso 1.000000     C
    C   1.0     0.400713     0.418448     0.054262  Biso 1.000000     C
    C   1.0     0.900722     0.418444     0.054262  Biso 1.000000     C
    C   1.0     0.457512     0.442066     0.112174  Biso 1.000000     C
    C   1.0     0.957529     0.442049     0.112168  Biso 1.000000     C
    C   1.0     0.037263     0.476124     0.120988  Biso 1.000000     C
    C   1.0     0.537264     0.476130     0.120987  Biso 1.000000     C
    C   1.0     0.095529     0.485293     0.179663  Biso 1.000000     C
    C   1.0     0.595528     0.485297     0.179661  Biso 1.000000     C
    C   1.0     0.086350     0.446873     0.215124  Biso 1.000000     C
    C   1.0     0.586347     0.446877     0.215123  Biso 1.000000     C
    C   1.0     0.146410     0.452962     0.264933  Biso 1.000000     C
    C   1.0     0.646408     0.452963     0.264930  Biso 1.000000     C
    C   1.0     0.218583     0.497237     0.280730  Biso 1.000000     C
    C   1.0     0.718577     0.497242     0.280732  Biso 1.000000     C
    C   1.0     0.226491     0.537112     0.246570  Biso 1.000000     C
    C   1.0     0.726490     0.537113     0.246568  Biso 1.000000     C
    C   1.0     0.166087     0.531205     0.197114  Biso 1.000000     C
    C   1.0     0.666087     0.531208     0.197113  Biso 1.000000     C
    C   1.0     0.284772     0.499024     0.329884  Biso 1.000000     C
    C   1.0     0.784770     0.499024     0.329881  Biso 1.000000     C
    C   1.0     0.264209     0.482976     0.383020  Biso 1.000000     C
    C   1.0     0.764207     0.482973     0.383016  Biso 1.000000     C
    C   1.0     0.328974     0.481439     0.425781  Biso 1.000000     C
    C   1.0     0.828972     0.481444     0.425780  Biso 1.000000     C
    C   1.0     0.432020     0.512624     0.370336  Biso 1.000000     C
    C   1.0     0.932015     0.512631     0.370336  Biso 1.000000     C
    C   1.0     0.371385     0.514394     0.324508  Biso 1.000000     C
    C   1.0     0.871381     0.514396     0.324505  Biso 1.000000     C
    N   1.0     0.088135     0.075449     0.495576  Biso 1.000000     N
    N   1.0     0.588144     0.075453     0.495567  Biso 1.000000     N
    N   1.0     0.088294     0.420025     0.924200  Biso 1.000000     N
    N   1.0     0.588297     0.420014     0.924193  Biso 1.000000     N
    N   1.0     0.088159     0.504107     0.579850  Biso 1.000000     N
    N   1.0     0.588168     0.504107     0.579858  Biso 1.000000     N
    N   1.0     0.411881     0.924542     0.504440  Biso 1.000000     N
    N   1.0     0.911884     0.924531     0.504429  Biso 1.000000     N
    N   1.0     0.411724     0.579968     0.075802  Biso 1.000000     N
    N   1.0     0.911725     0.579966     0.075812  Biso 1.000000     N
    N   1.0     0.411861     0.495873     0.420146  Biso 1.000000     N
    N   1.0     0.911858     0.495880     0.420146  Biso 1.000000     N
    O   1.0     0.433088     0.417811     0.500197  Biso 1.000000     O
    O   1.0     0.933095     0.417813     0.500188  Biso 1.000000     O
    O   1.0     0.088270     0.425416     0.424877  Biso 1.000000     O
    O   1.0     0.588278     0.425409     0.424883  Biso 1.000000     O
    O   1.0     0.433074     0.082427     0.582145  Biso 1.000000     O
    O   1.0     0.933076     0.082411     0.582147  Biso 1.000000     O
    O   1.0     0.088238     0.999759     0.574893  Biso 1.000000     O
    O   1.0     0.588245     0.999769     0.574888  Biso 1.000000     O
    O   1.0     0.433120     0.499865     0.917720  Biso 1.000000     O
    O   1.0     0.933122     0.499875     0.917733  Biso 1.000000     O
    O   1.0     0.088326     0.574966     0.000209  Biso 1.000000     O
    O   1.0     0.588334     0.574957     0.000199  Biso 1.000000     O
    O   1.0     0.066929     0.582175     0.499809  Biso 1.000000     O
    O   1.0     0.566933     0.582168     0.499807  Biso 1.000000     O
    O   1.0     0.411747     0.574568     0.575122  Biso 1.000000     O
    O   1.0     0.911750     0.574571     0.575120  Biso 1.000000     O
    O   1.0     0.066944     0.917564     0.417859  Biso 1.000000     O
    O   1.0     0.566948     0.917570     0.417858  Biso 1.000000     O
    O   1.0     0.411777     0.000226     0.425116  Biso 1.000000     O
    O   1.0     0.911786     0.000221     0.425116  Biso 1.000000     O
    O   1.0     0.066898     0.500119     0.082281  Biso 1.000000     O
    O   1.0     0.566904     0.500118     0.082274  Biso 1.000000     O
    O   1.0     0.411688     0.425026     0.999797  Biso 1.000000     O
    O   1.0     0.911696     0.425027     0.999800  Biso 1.000000     O
   Zn   1.0     0.000003     0.499995     0.499997  Biso 1.000000    Zn
   Zn   1.0     0.500013     0.499988     0.500003  Biso 1.000000    Zn
   Zn   1.0     0.000000    -0.000001     0.500003  Biso 1.000000    Zn
   Zn   1.0     0.500005     0.000008     0.500002  Biso 1.000000    Zn
   Zn   1.0     0.000006     0.499995     0.000005  Biso 1.000000    Zn
   Zn   1.0     0.500011     0.499990    -0.000004  Biso 1.000000    Zn
