#======================================================================

# CRYSTAL DATA

#----------------------------------------------------------------------

data_VESTA_phase_1


_pd_phase_name                         MOF
_cell_length_a                         22.11300
_cell_length_b                         22.11800
_cell_length_c                         14.06800
_cell_angle_alpha                      88.04500
_cell_angle_beta                       90.64500
_cell_angle_gamma                      80.13100
_symmetry_space_group_name_H-M         "P 1"
_symmetry_Int_Tables_number            1

loop_
_symmetry_equiv_pos_as_xyz
   "x, y, z"

loop_
   _atom_site_label
   _atom_site_occupancy
   _atom_site_fract_x
   _atom_site_fract_y
   _atom_site_fract_z
   _atom_site_adp_type
   _atom_site_B_iso_or_equiv
   _atom_site_type_symbol
    H   1.0     0.361132     0.370561     0.556530  Biso 1.000000     H
    H   1.0     0.363770     0.869890     0.556185  Biso 1.000000     H
    H   1.0     0.864273     0.369811     0.556517  Biso 1.000000     H
    H   1.0     0.861847     0.870182     0.556804  Biso 1.000000     H
    H   1.0     0.370767     0.481502     0.560352  Biso 1.000000     H
    H   1.0     0.372182     0.981138     0.560091  Biso 1.000000     H
    H   1.0     0.873097     0.480959     0.560513  Biso 1.000000     H
    H   1.0     0.870187     0.981437     0.560642  Biso 1.000000     H
    H   1.0     0.380259     0.468853     0.865235  Biso 1.000000     H
    H   1.0     0.377881     0.969394     0.865108  Biso 1.000000     H
    H   1.0     0.878174     0.469272     0.865540  Biso 1.000000     H
    H   1.0     0.879630     0.968875     0.865536  Biso 1.000000     H
    H   1.0     0.371891     0.356977     0.861515  Biso 1.000000     H
    H   1.0     0.370595     0.857272     0.861364  Biso 1.000000     H
    H   1.0     0.869941     0.357364     0.861699  Biso 1.000000     H
    H   1.0     0.872045     0.856803     0.861824  Biso 1.000000     H
    H   1.0     0.168487     0.192137     0.553114  Biso 1.000000     H
    H   1.0     0.168787     0.692627     0.552845  Biso 1.000000     H
    H   1.0     0.667862     0.193594     0.552288  Biso 1.000000     H
    H   1.0     0.669139     0.692395     0.552531  Biso 1.000000     H
    H   1.0     0.056495     0.188768     0.552563  Biso 1.000000     H
    H   1.0     0.056723     0.689713     0.553535  Biso 1.000000     H
    H   1.0     0.555825     0.190819     0.552698  Biso 1.000000     H
    H   1.0     0.557086     0.689359     0.552591  Biso 1.000000     H
    H   1.0     0.065809     0.145941     0.852908  Biso 1.000000     H
    H   1.0     0.067695     0.644337     0.853094  Biso 1.000000     H
    H   1.0     0.566687     0.144341     0.851919  Biso 1.000000     H
    H   1.0     0.567374     0.644330     0.852260  Biso 1.000000     H
    H   1.0     0.179098     0.148012     0.853275  Biso 1.000000     H
    H   1.0     0.180972     0.646325     0.852314  Biso 1.000000     H
    H   1.0     0.679925     0.146309     0.851455  Biso 1.000000     H
    H   1.0     0.680666     0.646328     0.852098  Biso 1.000000     H
    H   1.0     0.460806     0.153406     0.456968  Biso 1.000000     H
    H   1.0     0.462358     0.652228     0.456538  Biso 1.000000     H
    H   1.0     0.961174     0.152600     0.455803  Biso 1.000000     H
    H   1.0     0.962547     0.652960     0.456999  Biso 1.000000     H
    H   1.0     0.467346     0.151089     0.279985  Biso 1.000000     H
    H   1.0     0.468951     0.650115     0.279555  Biso 1.000000     H
    H   1.0     0.967231     0.150439     0.278780  Biso 1.000000     H
    H   1.0     0.969098     0.650646     0.280022  Biso 1.000000     H
    H   1.0     0.268536     0.183971     0.269213  Biso 1.000000     H
    H   1.0     0.270121     0.683647     0.268596  Biso 1.000000     H
    H   1.0     0.768419     0.183690     0.269211  Biso 1.000000     H
    H   1.0     0.770273     0.683106     0.269339  Biso 1.000000     H
    H   1.0     0.270557     0.184622     0.446251  Biso 1.000000     H
    H   1.0     0.272132     0.684139     0.445711  Biso 1.000000     H
    H   1.0     0.770916     0.184340     0.446313  Biso 1.000000     H
    H   1.0     0.772290     0.683890     0.446317  Biso 1.000000     H
    H   1.0     0.444063     0.090209     0.145192  Biso 1.000000     H
    H   1.0     0.445654     0.590005     0.144042  Biso 1.000000     H
    H   1.0     0.943577     0.089693     0.144384  Biso 1.000000     H
    H   1.0     0.946247     0.590365     0.144534  Biso 1.000000     H
    H   1.0     0.441444     0.093403     0.967036  Biso 1.000000     H
    H   1.0     0.442525     0.593439     0.965851  Biso 1.000000     H
    H   1.0     0.940878     0.093099     0.966199  Biso 1.000000     H
    H   1.0     0.942927     0.593672     0.966367  Biso 1.000000     H
    H   1.0     0.301122     0.243405     0.955515  Biso 1.000000     H
    H   1.0     0.302269     0.743493     0.955554  Biso 1.000000     H
    H   1.0     0.801049     0.243536     0.955155  Biso 1.000000     H
    H   1.0     0.801488     0.742641     0.956206  Biso 1.000000     H
    H   1.0     0.295152     0.245406     0.133249  Biso 1.000000     H
    H   1.0     0.296684     0.745169     0.133287  Biso 1.000000     H
    H   1.0     0.794952     0.245177     0.132945  Biso 1.000000     H
    H   1.0     0.796056     0.744393     0.133924  Biso 1.000000     H
    H   1.0     0.138121     0.129818     0.443195  Biso 1.000000     H
    H   1.0     0.135686     0.630187     0.443467  Biso 1.000000     H
    H   1.0     0.636261     0.129984     0.443911  Biso 1.000000     H
    H   1.0     0.638843     0.629383     0.443458  Biso 1.000000     H
    H   1.0     0.129802     0.018560     0.439366  Biso 1.000000     H
    H   1.0     0.126878     0.519036     0.439485  Biso 1.000000     H
    H   1.0     0.627814     0.018734     0.439992  Biso 1.000000     H
    H   1.0     0.629278     0.518425     0.439650  Biso 1.000000     H
    H   1.0     0.120371     0.031109     0.134470  Biso 1.000000     H
    H   1.0     0.121841     0.530698     0.134457  Biso 1.000000     H
    H   1.0     0.622021     0.030509     0.134976  Biso 1.000000     H
    H   1.0     0.619897     0.531032     0.134754  Biso 1.000000     H
    H   1.0     0.127942     0.143183     0.138173  Biso 1.000000     H
    H   1.0     0.130065     0.642609     0.138284  Biso 1.000000     H
    H   1.0     0.629290     0.142643     0.138743  Biso 1.000000     H
    H   1.0     0.628168     0.642929     0.138470  Biso 1.000000     H
    H   1.0     0.330881     0.307570     0.447460  Biso 1.000000     H
    H   1.0     0.332109     0.806369     0.447725  Biso 1.000000     H
    H   1.0     0.831307     0.307147     0.447194  Biso 1.000000     H
    H   1.0     0.831497     0.807814     0.446896  Biso 1.000000     H
    H   1.0     0.442930     0.310616     0.447402  Biso 1.000000     H
    H   1.0     0.444148     0.809134     0.447311  Biso 1.000000     H
    H   1.0     0.943309     0.310318     0.446441  Biso 1.000000     H
    H   1.0     0.943477     0.811233     0.447449  Biso 1.000000     H
    H   1.0     0.432627     0.355695     0.147746  Biso 1.000000     H
    H   1.0     0.433275     0.855643     0.148098  Biso 1.000000     H
    H   1.0     0.932267     0.355310     0.146765  Biso 1.000000     H
    H   1.0     0.934148     0.854064     0.147104  Biso 1.000000     H
    H   1.0     0.319342     0.353674     0.147906  Biso 1.000000     H
    H   1.0     0.320032     0.853691     0.148574  Biso 1.000000     H
    H   1.0     0.819064     0.352979     0.147567  Biso 1.000000     H
    H   1.0     0.820869     0.851956     0.146741  Biso 1.000000     H
    H   1.0     0.037445     0.347025     0.542979  Biso 1.000000     H
    H   1.0     0.038793     0.847440     0.544212  Biso 1.000000     H
    H   1.0     0.537639     0.347719     0.543487  Biso 1.000000     H
    H   1.0     0.539175     0.846551     0.543055  Biso 1.000000     H
    H   1.0     0.030894     0.349337     0.719955  Biso 1.000000     H
    H   1.0     0.032744     0.849542     0.721240  Biso 1.000000     H
    H   1.0     0.531047     0.349859     0.720463  Biso 1.000000     H
    H   1.0     0.532653     0.848893     0.720036  Biso 1.000000     H
    H   1.0     0.229719     0.316876     0.730640  Biso 1.000000     H
    H   1.0     0.231559     0.815947     0.730816  Biso 1.000000     H
    H   1.0     0.729876     0.316342     0.731421  Biso 1.000000     H
    H   1.0     0.731463     0.816010     0.730760  Biso 1.000000     H
    H   1.0     0.227703     0.316096     0.553661  Biso 1.000000     H
    H   1.0     0.229050     0.815378     0.553705  Biso 1.000000     H
    H   1.0     0.727867     0.315826     0.554311  Biso 1.000000     H
    H   1.0     0.729425     0.815328     0.553721  Biso 1.000000     H
    H   1.0     0.053745     0.409616     0.855451  Biso 1.000000     H
    H   1.0     0.056520     0.910250     0.855578  Biso 1.000000     H
    H   1.0     0.554330     0.409951     0.856010  Biso 1.000000     H
    H   1.0     0.555946     0.909779     0.854809  Biso 1.000000     H
    H   1.0     0.057071     0.406309     0.033618  Biso 1.000000     H
    H   1.0     0.059227     0.906919     0.033760  Biso 1.000000     H
    H   1.0     0.557468     0.406490     0.034197  Biso 1.000000     H
    H   1.0     0.558552     0.906567     0.032964  Biso 1.000000     H
    H   1.0     0.198519     0.257349     0.043770  Biso 1.000000     H
    H   1.0     0.198854     0.756298     0.044932  Biso 1.000000     H
    H   1.0     0.697775     0.256485     0.044446  Biso 1.000000     H
    H   1.0     0.698870     0.756560     0.044475  Biso 1.000000     H
    H   1.0     0.203939     0.255589     0.866050  Biso 1.000000     H
    H   1.0     0.204897     0.754538     0.867154  Biso 1.000000     H
    H   1.0     0.703336     0.254817     0.866703  Biso 1.000000     H
    H   1.0     0.704851     0.754577     0.866741  Biso 1.000000     H
    C   1.0     0.359455     0.290291     0.706688  Biso 1.000000     C
    C   1.0     0.360863     0.789917     0.706603  Biso 1.000000     C
    C   1.0     0.860407     0.290029     0.706939  Biso 1.000000     C
    C   1.0     0.860504     0.789889     0.706961  Biso 1.000000     C
    C   1.0     0.365558     0.356950     0.708856  Biso 1.000000     C
    C   1.0     0.366340     0.856730     0.708618  Biso 1.000000     C
    C   1.0     0.866245     0.356754     0.708945  Biso 1.000000     C
    C   1.0     0.866072     0.856665     0.709148  Biso 1.000000     C
    C   1.0     0.365703     0.392100     0.623955  Biso 1.000000     C
    C   1.0     0.367247     0.891686     0.623677  Biso 1.000000     C
    C   1.0     0.867646     0.391617     0.624029  Biso 1.000000     C
    C   1.0     0.866042     0.891833     0.624234  Biso 1.000000     C
    C   1.0     0.371137     0.453818     0.625940  Biso 1.000000     C
    C   1.0     0.372004     0.953578     0.625701  Biso 1.000000     C
    C   1.0     0.872674     0.453438     0.626108  Biso 1.000000     C
    C   1.0     0.870788     0.953713     0.626228  Biso 1.000000     C
    C   1.0     0.376240     0.481781     0.713000  Biso 1.000000     C
    C   1.0     0.375736     0.981870     0.712804  Biso 1.000000     C
    C   1.0     0.876387     0.481711     0.713241  Biso 1.000000     C
    C   1.0     0.875564     0.981775     0.713289  Biso 1.000000     C
    C   1.0     0.376722     0.446560     0.798006  Biso 1.000000     C
    C   1.0     0.375413     0.946853     0.797856  Biso 1.000000     C
    C   1.0     0.875682     0.446756     0.798269  Biso 1.000000     C
    C   1.0     0.876292     0.946527     0.798307  Biso 1.000000     C
    C   1.0     0.371630     0.384723     0.795973  Biso 1.000000     C
    C   1.0     0.370945     0.884871     0.795801  Biso 1.000000     C
    C   1.0     0.870731     0.384890     0.796159  Biso 1.000000     C
    C   1.0     0.871693     0.884564     0.796279  Biso 1.000000     C
    C   1.0     0.377508     0.049537     0.714620  Biso 1.000000     C
    C   1.0     0.378459     0.549353     0.714828  Biso 1.000000     C
    C   1.0     0.877374     0.049441     0.714964  Biso 1.000000     C
    C   1.0     0.878450     0.549318     0.715090  Biso 1.000000     C
    C   1.0     0.247876     0.173482     0.703996  Biso 1.000000     C
    C   1.0     0.248955     0.673135     0.702736  Biso 1.000000     C
    C   1.0     0.748120     0.173751     0.702493  Biso 1.000000     C
    C   1.0     0.748951     0.673030     0.702768  Biso 1.000000     C
    C   1.0     0.180665     0.170420     0.703483  Biso 1.000000     C
    C   1.0     0.181772     0.669883     0.702794  Biso 1.000000     C
    C   1.0     0.680873     0.170423     0.702142  Biso 1.000000     C
    C   1.0     0.681779     0.669767     0.702565  Biso 1.000000     C
    C   1.0     0.146122     0.181380     0.618543  Biso 1.000000     C
    C   1.0     0.146751     0.681500     0.618392  Biso 1.000000     C
    C   1.0     0.645839     0.182286     0.617756  Biso 1.000000     C
    C   1.0     0.646960     0.681290     0.617957  Biso 1.000000     C
    C   1.0     0.083590     0.179582     0.618196  Biso 1.000000     C
    C   1.0     0.084173     0.679897     0.618738  Biso 1.000000     C
    C   1.0     0.583216     0.180740     0.617932  Biso 1.000000     C
    C   1.0     0.584393     0.679640     0.617949  Biso 1.000000     C
    C   1.0     0.054492     0.166730     0.702759  Biso 1.000000     C
    C   1.0     0.055487     0.666455     0.703408  Biso 1.000000     C
    C   1.0     0.554445     0.167049     0.702418  Biso 1.000000     C
    C   1.0     0.555527     0.666287     0.702487  Biso 1.000000     C
    C   1.0     0.089026     0.155642     0.787698  Biso 1.000000     C
    C   1.0     0.090548     0.654547     0.787774  Biso 1.000000     C
    C   1.0     0.589548     0.154785     0.786723  Biso 1.000000     C
    C   1.0     0.590387     0.654473     0.787061  Biso 1.000000     C
    C   1.0     0.151650     0.157197     0.787966  Biso 1.000000     C
    C   1.0     0.153187     0.656028     0.787399  Biso 1.000000     C
    C   1.0     0.652196     0.156244     0.786518  Biso 1.000000     C
    C   1.0     0.653023     0.655967     0.787033  Biso 1.000000     C
    C   1.0     0.486695     0.166219     0.703169  Biso 1.000000     C
    C   1.0     0.487834     0.665417     0.702707  Biso 1.000000     C
    C   1.0     0.986882     0.165572     0.702492  Biso 1.000000     C
    C   1.0     0.987789     0.665535     0.703955  Biso 1.000000     C
    C   1.0     0.419623     0.159295     0.412023  Biso 1.000000     C
    C   1.0     0.421181     0.658345     0.411558  Biso 1.000000     C
    C   1.0     0.919866     0.158681     0.411127  Biso 1.000000     C
    C   1.0     0.921364     0.658839     0.412052  Biso 1.000000     C
    C   1.0     0.422652     0.157759     0.313612  Biso 1.000000     C
    C   1.0     0.424237     0.656910     0.313133  Biso 1.000000     C
    C   1.0     0.922630     0.157179     0.312698  Biso 1.000000     C
    C   1.0     0.924396     0.657277     0.313630  Biso 1.000000     C
    C   1.0     0.368056     0.167098     0.259276  Biso 1.000000     C
    C   1.0     0.369654     0.666537     0.258753  Biso 1.000000     C
    C   1.0     0.867904     0.166646     0.258692  Biso 1.000000     C
    C   1.0     0.869792     0.666518     0.259315  Biso 1.000000     C
    C   1.0     0.312330     0.176810     0.307702  Biso 1.000000     C
    C   1.0     0.313912     0.676304     0.307139  Biso 1.000000     C
    C   1.0     0.812307     0.176429     0.307452  Biso 1.000000     C
    C   1.0     0.814075     0.676089     0.307784  Biso 1.000000     C
    C   1.0     0.312959     0.177112     0.406410  Biso 1.000000     C
    C   1.0     0.314523     0.676505     0.405854  Biso 1.000000     C
    C   1.0     0.813196     0.176720     0.406173  Biso 1.000000     C
    C   1.0     0.814694     0.676459     0.406469  Biso 1.000000     C
    C   1.0     0.369149     0.167368     0.154261  Biso 1.000000     C
    C   1.0     0.370686     0.667068     0.153732  Biso 1.000000     C
    C   1.0     0.868836     0.166998     0.153679  Biso 1.000000     C
    C   1.0     0.870710     0.666878     0.154296  Biso 1.000000     C
    C   1.0     0.411379     0.124951     0.106063  Biso 1.000000     C
    C   1.0     0.412853     0.624783     0.105191  Biso 1.000000     C
    C   1.0     0.910969     0.124556     0.105354  Biso 1.000000     C
    C   1.0     0.913137     0.624872     0.105721  Biso 1.000000     C
    C   1.0     0.410332     0.126309     0.000000  Biso 1.000000     C
    C   1.0     0.411546     0.626276     0.000000  Biso 1.000000     C
    C   1.0     0.909914     0.126055     0.000000  Biso 1.000000     C
    C   1.0     0.911717     0.626294     0.000000  Biso 1.000000     C
    C   1.0     0.330874     0.209692     0.000000  Biso 1.000000     C
    C   1.0     0.332086     0.709674     0.000000  Biso 1.000000     C
    C   1.0     0.830654     0.209650     0.000000  Biso 1.000000     C
    C   1.0     0.831617     0.709066     0.000000  Biso 1.000000     C
    C   1.0     0.327981     0.210519     0.099394  Biso 1.000000     C
    C   1.0     0.329435     0.710342     0.099193  Biso 1.000000     C
    C   1.0     0.827730     0.210301     0.098969  Biso 1.000000     C
    C   1.0     0.829047     0.709779     0.099800  Biso 1.000000     C
    C   1.0     0.139478     0.210105     0.293034  Biso 1.000000     C
    C   1.0     0.139579     0.709953     0.293044  Biso 1.000000     C
    C   1.0     0.639135     0.209945     0.293405  Biso 1.000000     C
    C   1.0     0.640528     0.709642     0.293298  Biso 1.000000     C
    C   1.0     0.133908     0.143329     0.290850  Biso 1.000000     C
    C   1.0     0.133742     0.643229     0.291039  Biso 1.000000     C
    C   1.0     0.633630     0.143142     0.291479  Biso 1.000000     C
    C   1.0     0.634460     0.642973     0.291130  Biso 1.000000     C
    C   1.0     0.133935     0.108163     0.375766  Biso 1.000000     C
    C   1.0     0.132329     0.608374     0.375959  Biso 1.000000     C
    C   1.0     0.632753     0.108191     0.376423  Biso 1.000000     C
    C   1.0     0.634308     0.607830     0.376036  Biso 1.000000     C
    C   1.0     0.129199     0.046280     0.373777  Biso 1.000000     C
    C   1.0     0.127308     0.546552     0.373887  Biso 1.000000     C
    C   1.0     0.627978     0.046304     0.374391  Biso 1.000000     C
    C   1.0     0.628916     0.546102     0.374057  Biso 1.000000     C
    C   1.0     0.124432     0.018212     0.286718  Biso 1.000000     C
    C   1.0     0.123611     0.518272     0.286758  Biso 1.000000     C
    C   1.0     0.624223     0.018033     0.287278  Biso 1.000000     C
    C   1.0     0.623872     0.518120     0.286996  Biso 1.000000     C
    C   1.0     0.123703     0.053459     0.201699  Biso 1.000000     C
    C   1.0     0.124323     0.553220     0.201724  Biso 1.000000     C
    C   1.0     0.624508     0.053048     0.202224  Biso 1.000000     C
    C   1.0     0.623393     0.553334     0.201984  Biso 1.000000     C
    C   1.0     0.128295     0.115425     0.203721  Biso 1.000000     C
    C   1.0     0.129269     0.615088     0.203828  Biso 1.000000     C
    C   1.0     0.628973     0.115024     0.204290  Biso 1.000000     C
    C   1.0     0.628432     0.615185     0.204014  Biso 1.000000     C
    C   1.0     0.121554     0.450665     0.284925  Biso 1.000000     C
    C   1.0     0.122624     0.950545     0.285045  Biso 1.000000     C
    C   1.0     0.621713     0.450538     0.285205  Biso 1.000000     C
    C   1.0     0.622465     0.950379     0.285427  Biso 1.000000     C
    C   1.0     0.251059     0.326945     0.297225  Biso 1.000000     C
    C   1.0     0.251850     0.826226     0.297538  Biso 1.000000     C
    C   1.0     0.751142     0.326200     0.297288  Biso 1.000000     C
    C   1.0     0.752107     0.826402     0.296010  Biso 1.000000     C
    C   1.0     0.318232     0.330217     0.297433  Biso 1.000000     C
    C   1.0     0.319094     0.829558     0.297881  Biso 1.000000     C
    C   1.0     0.818294     0.329598     0.297156  Biso 1.000000     C
    C   1.0     0.819309     0.829523     0.296528  Biso 1.000000     C
    C   1.0     0.353056     0.318685     0.382036  Biso 1.000000     C
    C   1.0     0.354131     0.817683     0.382260  Biso 1.000000     C
    C   1.0     0.853312     0.318226     0.381592  Biso 1.000000     C
    C   1.0     0.853856     0.818582     0.381467  Biso 1.000000     C
    C   1.0     0.415624     0.320342     0.382044  Biso 1.000000     C
    C   1.0     0.416755     0.819222     0.382081  Biso 1.000000     C
    C   1.0     0.915858     0.319984     0.381217  Biso 1.000000     C
    C   1.0     0.916383     0.820408     0.381813  Biso 1.000000     C
    C   1.0     0.444487     0.333709     0.297509  Biso 1.000000     C
    C   1.0     0.445522     0.832913     0.297592  Biso 1.000000     C
    C   1.0     0.944515     0.333385     0.296498  Biso 1.000000     C
    C   1.0     0.945479     0.833267     0.297250  Biso 1.000000     C
    C   1.0     0.409620     0.345537     0.212942  Biso 1.000000     C
    C   1.0     0.410416     0.845195     0.213293  Biso 1.000000     C
    C   1.0     0.909447     0.345103     0.212118  Biso 1.000000     C
    C   1.0     0.910938     0.844351     0.212316  Biso 1.000000     C
    C   1.0     0.346985     0.344031     0.212970  Biso 1.000000     C
    C   1.0     0.347766     0.843745     0.213504  Biso 1.000000     C
    C   1.0     0.846843     0.343432     0.212509  Biso 1.000000     C
    C   1.0     0.848318     0.842773     0.212049  Biso 1.000000     C
    C   1.0     0.012196     0.334422     0.295917  Biso 1.000000     C
    C   1.0     0.013089     0.834427     0.297513  Biso 1.000000     C
    C   1.0     0.512182     0.334576     0.297270  Biso 1.000000     C
    C   1.0     0.513274     0.833724     0.296845  Biso 1.000000     C
    C   1.0     0.078628     0.341142     0.587925  Biso 1.000000     C
    C   1.0     0.080105     0.841271     0.588890  Biso 1.000000     C
    C   1.0     0.578817     0.341610     0.588461  Biso 1.000000     C
    C   1.0     0.580362     0.840668     0.587989  Biso 1.000000     C
    C   1.0     0.075596     0.342704     0.686348  Biso 1.000000     C
    C   1.0     0.077345     0.842735     0.687322  Biso 1.000000     C
    C   1.0     0.575761     0.343061     0.686886  Biso 1.000000     C
    C   1.0     0.577344     0.842218     0.686398  Biso 1.000000     C
    C   1.0     0.130200     0.333463     0.740664  Biso 1.000000     C
    C   1.0     0.132073     0.833161     0.741330  Biso 1.000000     C
    C   1.0     0.630344     0.333440     0.741266  Biso 1.000000     C
    C   1.0     0.631944     0.832884     0.740720  Biso 1.000000     C
    C   1.0     0.185917     0.323890     0.692194  Biso 1.000000     C
    C   1.0     0.187668     0.823287     0.692574  Biso 1.000000     C
    C   1.0     0.686085     0.323675     0.692879  Biso 1.000000     C
    C   1.0     0.687665     0.823167     0.692281  Biso 1.000000     C
    C   1.0     0.185298     0.323521     0.593510  Biso 1.000000     C
    C   1.0     0.186774     0.823046     0.593850  Biso 1.000000     C
    C   1.0     0.685474     0.323459     0.594164  Biso 1.000000     C
    C   1.0     0.687027     0.822849     0.593573  Biso 1.000000     C
    C   1.0     0.129284     0.333105     0.845683  Biso 1.000000     C
    C   1.0     0.131143     0.832828     0.846341  Biso 1.000000     C
    C   1.0     0.629316     0.332906     0.846288  Biso 1.000000     C
    C   1.0     0.630856     0.832616     0.845735  Biso 1.000000     C
    C   1.0     0.086857     0.375110     0.894262  Biso 1.000000     C
    C   1.0     0.089080     0.875356     0.894634  Biso 1.000000     C
    C   1.0     0.587143     0.375176     0.894845  Biso 1.000000     C
    C   1.0     0.588626     0.875032     0.893936  Biso 1.000000     C
    C   1.0     0.088282     0.373690    -0.006887  Biso 1.000000     C
    C   1.0     0.090142     0.873903    -0.006536  Biso 1.000000     C
    C   1.0     0.588458     0.373671    -0.006312  Biso 1.000000     C
    C   1.0     0.589666     0.873663    -0.007220  Biso 1.000000     C
    C   1.0     0.168386     0.290921    -0.001299  Biso 1.000000     C
    C   1.0     0.169287     0.790198    -0.000398  Biso 1.000000     C
    C   1.0     0.667941     0.290291    -0.000667  Biso 1.000000     C
    C   1.0     0.669121     0.790278    -0.000894  Biso 1.000000     C
    C   1.0     0.170950     0.290204     0.900177  Biso 1.000000     C
    C   1.0     0.172186     0.789489     0.901090  Biso 1.000000     C
    C   1.0     0.670581     0.289635     0.900810  Biso 1.000000     C
    C   1.0     0.672021     0.789461     0.900599  Biso 1.000000     C
    N   1.0     0.365746     0.168884     0.458020  Biso 1.000000     N
    N   1.0     0.367290     0.668116     0.457530  Biso 1.000000     N
    N   1.0     0.866117     0.168392     0.457477  Biso 1.000000     N
    N   1.0     0.867486     0.668388     0.458056  Biso 1.000000     N
    N   1.0     0.370779     0.168014     0.955039  Biso 1.000000     N
    N   1.0     0.371833     0.668030     0.954517  Biso 1.000000     N
    N   1.0     0.870481     0.167963     0.954506  Biso 1.000000     N
    N   1.0     0.871658     0.667733     0.955055  Biso 1.000000     N
    N   1.0     0.132506     0.331592     0.541921  Biso 1.000000     N
    N   1.0     0.133852     0.831498     0.542540  Biso 1.000000     N
    N   1.0     0.632708     0.331833     0.542487  Biso 1.000000     N
    N   1.0     0.634235     0.831069     0.541979  Biso 1.000000     N
    N   1.0     0.128348     0.332255     0.044925  Biso 1.000000     N
    N   1.0     0.129526     0.831969     0.045513  Biso 1.000000     N
    N   1.0     0.628187     0.331922     0.045501  Biso 1.000000     N
    N   1.0     0.629213     0.831950     0.044957  Biso 1.000000     N
    O   1.0     0.359836     0.261447     0.786945  Biso 1.000000     O
    O   1.0     0.359309     0.761587     0.786907  Biso 1.000000     O
    O   1.0     0.856710     0.262235     0.787122  Biso 1.000000     O
    O   1.0     0.859436     0.761354     0.787196  Biso 1.000000     O
    O   1.0     0.354333     0.267630     0.625502  Biso 1.000000     O
    O   1.0     0.357936     0.766644     0.625389  Biso 1.000000     O
    O   1.0     0.859512     0.266284     0.625725  Biso 1.000000     O
    O   1.0     0.857170     0.766823     0.625671  Biso 1.000000     O
    O   1.0     0.377905     0.078113     0.634725  Biso 1.000000     O
    O   1.0     0.377375     0.578125     0.634832  Biso 1.000000     O
    O   1.0     0.874809     0.078329     0.634908  Biso 1.000000     O
    O   1.0     0.877470     0.578095     0.635123  Biso 1.000000     O
    O   1.0     0.377482     0.073159     0.796174  Biso 1.000000     O
    O   1.0     0.380036     0.572779     0.796293  Biso 1.000000     O
    O   1.0     0.880186     0.072804     0.796277  Biso 1.000000     O
    O   1.0     0.879931     0.572744     0.796565  Biso 1.000000     O
    O   1.0     0.274329     0.174632     0.784861  Biso 1.000000     O
    O   1.0     0.275871     0.672385     0.783668  Biso 1.000000     O
    O   1.0     0.775070     0.171858     0.783574  Biso 1.000000     O
    O   1.0     0.775781     0.672376     0.783749  Biso 1.000000     O
    O   1.0     0.273269     0.175308     0.623387  Biso 1.000000     O
    O   1.0     0.273847     0.677062     0.622082  Biso 1.000000     O
    O   1.0     0.773021     0.178992     0.622122  Biso 1.000000     O
    O   1.0     0.773913     0.676908     0.622167  Biso 1.000000     O
    O   1.0     0.458546     0.171901     0.622895  Biso 1.000000     O
    O   1.0     0.460406     0.669296     0.621955  Biso 1.000000     O
    O   1.0     0.960155     0.166934     0.621524  Biso 1.000000     O
    O   1.0     0.960199     0.669581     0.623333  Biso 1.000000     O
    O   1.0     0.462483     0.160438     0.783920  Biso 1.000000     O
    O   1.0     0.463023     0.661502     0.783401  Biso 1.000000     O
    O   1.0     0.961426     0.163869     0.783085  Biso 1.000000     O
    O   1.0     0.963103     0.661399     0.784668  Biso 1.000000     O
    O   1.0     0.140556     0.238637     0.212798  Biso 1.000000     O
    O   1.0     0.143279     0.737747     0.212862  Biso 1.000000     O
    O   1.0     0.640321     0.238264     0.213037  Biso 1.000000     O
    O   1.0     0.640176     0.738478     0.213039  Biso 1.000000     O
    O   1.0     0.142807     0.233174     0.374323  Biso 1.000000     O
    O   1.0     0.140471     0.733699     0.374257  Biso 1.000000     O
    O   1.0     0.642411     0.233205     0.374576  Biso 1.000000     O
    O   1.0     0.645604     0.732309     0.374488  Biso 1.000000     O
    O   1.0     0.122545     0.421894     0.364900  Biso 1.000000     O
    O   1.0     0.125191     0.921656     0.365102  Biso 1.000000     O
    O   1.0     0.622574     0.421823     0.365203  Biso 1.000000     O
    O   1.0     0.622124     0.921785     0.365319  Biso 1.000000     O
    O   1.0     0.120070     0.427233     0.203454  Biso 1.000000     O
    O   1.0     0.119809     0.927182     0.203731  Biso 1.000000     O
    O   1.0     0.620392     0.427045     0.203730  Biso 1.000000     O
    O   1.0     0.622490     0.926778     0.203858  Biso 1.000000     O
    O   1.0     0.224228     0.327608     0.216244  Biso 1.000000     O
    O   1.0     0.224892     0.828135     0.216461  Biso 1.000000     O
    O   1.0     0.724343     0.326048     0.216412  Biso 1.000000     O
    O   1.0     0.725645     0.825361     0.215123  Biso 1.000000     O
    O   1.0     0.226094     0.323073     0.377826  Biso 1.000000     O
    O   1.0     0.226958     0.820975     0.377915  Biso 1.000000     O
    O   1.0     0.726153     0.323040     0.377998  Biso 1.000000     O
    O   1.0     0.726732     0.824419     0.376609  Biso 1.000000     O
    O   1.0     0.039791     0.330433     0.376530  Biso 1.000000     O
    O   1.0     0.039818     0.833064     0.378481  Biso 1.000000     O
    O   1.0     0.539647     0.330577     0.378007  Biso 1.000000     O
    O   1.0     0.541404     0.828079     0.377136  Biso 1.000000     O
    O   1.0     0.036869     0.338587     0.215196  Biso 1.000000     O
    O   1.0     0.038549     0.836121     0.216921  Biso 1.000000     O
    O   1.0     0.536970     0.338589     0.216580  Biso 1.000000     O
    O   1.0     0.537505     0.839435     0.216094  Biso 1.000000     O
   Zn   1.0     0.369504     0.166791     0.807926  Biso 1.000000    Zn
   Zn   1.0     0.370040     0.666736     0.807590  Biso 1.000000    Zn
   Zn   1.0     0.869293     0.166886     0.807602  Biso 1.000000    Zn
   Zn   1.0     0.869992     0.666655     0.807957  Biso 1.000000    Zn
   Zn   1.0     0.365713     0.172215     0.604407  Biso 1.000000    Zn
   Zn   1.0     0.367172     0.671887     0.604076  Biso 1.000000    Zn
   Zn   1.0     0.866691     0.171877     0.604065  Biso 1.000000    Zn
   Zn   1.0     0.867159     0.671928     0.604394  Biso 1.000000    Zn
   Zn   1.0     0.130005     0.333333     0.192024  Biso 1.000000    Zn
   Zn   1.0     0.130687     0.833099     0.192413  Biso 1.000000    Zn
   Zn   1.0     0.629977     0.333139     0.192413  Biso 1.000000    Zn
   Zn   1.0     0.630488     0.833160     0.192067  Biso 1.000000    Zn
   Zn   1.0     0.132838     0.328063     0.395583  Biso 1.000000    Zn
   Zn   1.0     0.133287     0.828106     0.395933  Biso 1.000000    Zn
   Zn   1.0     0.632848     0.328037     0.395929  Biso 1.000000    Zn
   Zn   1.0     0.634214     0.827731     0.395589  Biso 1.000000    Zn
