#======================================================================

# CRYSTAL DATA

#----------------------------------------------------------------------

data_VESTA_phase_1


_pd_phase_name                         MOF
_cell_length_a                         14.30800
_cell_length_b                         15.84400
_cell_length_c                         15.84500
_cell_angle_alpha                      78.29100
_cell_angle_beta                       63.23000
_cell_angle_gamma                      63.22900
_symmetry_space_group_name_H-M         "P 1"
_symmetry_Int_Tables_number            1

loop_
_symmetry_equiv_pos_as_xyz
   "x, y, z"

loop_
   _atom_site_label
   _atom_site_occupancy
   _atom_site_fract_x
   _atom_site_fract_y
   _atom_site_fract_z
   _atom_site_adp_type
   _atom_site_B_iso_or_equiv
   _atom_site_type_symbol
    H   1.0     0.616703     0.342848     0.262442  Biso 1.000000     H
    H   1.0     0.460457     0.206917     0.400873  Biso 1.000000     H
    H   1.0     0.506511     0.403759     0.172155  Biso 1.000000     H
    H   1.0     0.272626     0.279073     0.226144  Biso 1.000000     H
    H   1.0     0.221449     0.657630     0.737079  Biso 1.000000     H
    H   1.0     0.067593     0.793056     0.598515  Biso 1.000000     H
    H   1.0     0.082253     0.596722     0.827507  Biso 1.000000     H
    H   1.0     0.777498     0.721018     0.774029  Biso 1.000000     H
    H   1.0     0.121120     0.263571     0.655661  Biso 1.000000     H
    H   1.0     0.139390     0.401434     0.792055  Biso 1.000000     H
    H   1.0     0.321257     0.172861     0.595111  Biso 1.000000     H
    H   1.0     0.500812     0.225091     0.721548  Biso 1.000000     H
    H   1.0     0.040870     0.737810     0.341662  Biso 1.000000     H
    H   1.0     0.332875     0.598990     0.206409  Biso 1.000000     H
    H   1.0     0.090082     0.828104     0.402656  Biso 1.000000     H
    H   1.0     0.448558     0.773268     0.279453  Biso 1.000000     H
    H   1.0     0.721497     0.737104     0.657522  Biso 1.000000     H
    H   1.0     0.567566     0.598591     0.793007  Biso 1.000000     H
    H   1.0     0.582341     0.827489     0.596561  Biso 1.000000     H
    H   1.0     0.277527     0.774117     0.720917  Biso 1.000000     H
    H   1.0     0.116749     0.262506     0.342772  Biso 1.000000     H
    H   1.0     0.960518     0.400954     0.206829  Biso 1.000000     H
    H   1.0     0.000000     0.172230     0.403682  Biso 1.000000     H
    H   1.0     0.772628     0.226264     0.279002  Biso 1.000000     H
    H   1.0     0.540911     0.341705     0.737767  Biso 1.000000     H
    H   1.0     0.832905     0.206490     0.598926  Biso 1.000000     H
    H   1.0     0.590122     0.402732     0.828029  Biso 1.000000     H
    H   1.0     0.948597     0.279521     0.773200  Biso 1.000000     H
    H   1.0     0.621117     0.655726     0.263507  Biso 1.000000     H
    H   1.0     0.639392     0.792129     0.401356  Biso 1.000000     H
    H   1.0     0.821266     0.595158     0.172807  Biso 1.000000     H
    H   1.0     0.000000     0.721612     0.225030  Biso 1.000000     H
    C   1.0     0.308890     0.166716     0.374846  Biso 1.000000     C
    C   1.0     0.355730     0.404089     0.113929  Biso 1.000000     C
    C   1.0     0.361944     0.233539     0.318723  Biso 1.000000     C
    C   1.0     0.441619     0.243063     0.340411  Biso 1.000000     C
    C   1.0     0.495519     0.303302     0.287189  Biso 1.000000     C
    C   1.0     0.466828     0.355512     0.213066  Biso 1.000000     C
    C   1.0     0.386832     0.346239     0.191854  Biso 1.000000     C
    C   1.0     0.334339     0.285068     0.244021  Biso 1.000000     C
    C   1.0     0.849919     0.833192     0.624895  Biso 1.000000     C
    C   1.0     0.873916     0.595992     0.886012  Biso 1.000000     C
    C   1.0     0.913672     0.766532     0.681080  Biso 1.000000     C
    C   1.0     0.024518     0.757090     0.659202  Biso 1.000000     C
    C   1.0     0.085519     0.697074     0.712426  Biso 1.000000     C
    C   1.0     0.035120     0.644861     0.786649  Biso 1.000000     C
    C   1.0     0.924715     0.653994     0.808035  Biso 1.000000     C
    C   1.0     0.863049     0.715083     0.755969  Biso 1.000000     C
    C   1.0     0.316557     0.374297     0.833323  Biso 1.000000     C
    C   1.0     0.529833     0.113648     0.595764  Biso 1.000000     C
    C   1.0     0.319461     0.318406     0.766317  Biso 1.000000     C
    C   1.0     0.218350     0.340723     0.756166  Biso 1.000000     C
    C   1.0     0.217581     0.287855     0.695577  Biso 1.000000     C
    C   1.0     0.320071     0.213456     0.643670  Biso 1.000000     C
    C   1.0     0.421033     0.191636     0.653544  Biso 1.000000     C
    C   1.0     0.421417     0.243429     0.715086  Biso 1.000000     C
    C   1.0     0.524501     0.624712     0.166837  Biso 1.000000     C
    C   1.0     0.240322     0.885987     0.403831  Biso 1.000000     C
    C   1.0     0.404725     0.680943     0.233479  Biso 1.000000     C
    C   1.0     0.315564     0.659456     0.242603  Biso 1.000000     C
    C   1.0     0.201485     0.712844     0.302516  Biso 1.000000     C
    C   1.0     0.177990     0.786991     0.354748  Biso 1.000000     C
    C   1.0     0.267207     0.807993     0.345915  Biso 1.000000     C
    C   1.0     0.380839     0.755609     0.285112  Biso 1.000000     C
    C   1.0     0.349887     0.625025     0.833140  Biso 1.000000     C
    C   1.0     0.374034     0.886008     0.595801  Biso 1.000000     C
    C   1.0     0.413680     0.681168     0.766456  Biso 1.000000     C
    C   1.0     0.524511     0.659274     0.757023  Biso 1.000000     C
    C   1.0     0.585537     0.712479     0.696998  Biso 1.000000     C
    C   1.0     0.535181     0.786662     0.644728  Biso 1.000000     C
    C   1.0     0.424792     0.808060     0.653850  Biso 1.000000     C
    C   1.0     0.363085     0.756039     0.714975  Biso 1.000000     C
    C   1.0     0.808899     0.374953     0.166650  Biso 1.000000     C
    C   1.0     0.855714     0.114014     0.403960  Biso 1.000000     C
    C   1.0     0.861964     0.318831     0.233465  Biso 1.000000     C
    C   1.0     0.941657     0.340500     0.242983  Biso 1.000000     C
    C   1.0     0.995538     0.287275     0.303234  Biso 1.000000     C
    C   1.0     0.966838     0.213149     0.355441  Biso 1.000000     C
    C   1.0     0.886839     0.191949     0.346160  Biso 1.000000     C
    C   1.0     0.834348     0.244133     0.284995  Biso 1.000000     C
    C   1.0     0.024558     0.166897     0.624642  Biso 1.000000     C
    C   1.0     0.740332     0.403924     0.885908  Biso 1.000000     C
    C   1.0     0.904768     0.233543     0.680878  Biso 1.000000     C
    C   1.0     0.815604     0.242678     0.659390  Biso 1.000000     C
    C   1.0     0.701528     0.302594     0.712778  Biso 1.000000     C
    C   1.0     0.678032     0.354821     0.786921  Biso 1.000000     C
    C   1.0     0.767248     0.345986     0.807923  Biso 1.000000     C
    C   1.0     0.880878     0.285178     0.755543  Biso 1.000000     C
    C   1.0     0.816560     0.833392     0.374239  Biso 1.000000     C
    C   1.0     0.029882     0.595879     0.113568  Biso 1.000000     C
    C   1.0     0.819470     0.766375     0.318351  Biso 1.000000     C
    C   1.0     0.718359     0.756229     0.340656  Biso 1.000000     C
    C   1.0     0.717594     0.695634     0.287789  Biso 1.000000     C
    C   1.0     0.820088     0.643718     0.213397  Biso 1.000000     C
    C   1.0     0.921045     0.653601     0.191577  Biso 1.000000     C
    C   1.0     0.921423     0.715145     0.243377  Biso 1.000000     C
    O   1.0     0.366409     0.097170     0.416612  Biso 1.000000     O
    O   1.0     0.213660     0.174541     0.383118  Biso 1.000000     O
    O   1.0     0.301053     0.384373     0.081965  Biso 1.000000     O
    O   1.0     0.385504     0.473615     0.082085  Biso 1.000000     O
    O   1.0     0.572076     0.308590     0.311333  Biso 1.000000     O
    O   1.0     0.879646     0.902796     0.583092  Biso 1.000000     O
    O   1.0     0.770853     0.825205     0.616638  Biso 1.000000     O
    O   1.0     0.767562     0.615904     0.918591  Biso 1.000000     O
    O   1.0     0.941726     0.526193     0.917209  Biso 1.000000     O
    O   1.0     0.191383     0.691934     0.688217  Biso 1.000000     O
    O   1.0     0.217252     0.416265     0.902693  Biso 1.000000     O
    O   1.0     0.403619     0.382224     0.825736  Biso 1.000000     O
    O   1.0     0.616271     0.081462     0.615689  Biso 1.000000     O
    O   1.0     0.531948     0.082072     0.526031  Biso 1.000000     O
    O   1.0     0.117205     0.312629     0.689524  Biso 1.000000     O
    O   1.0     0.536501     0.583214     0.097036  Biso 1.000000     O
    O   1.0     0.611852     0.616157     0.174975  Biso 1.000000     O
    O   1.0     0.314461     0.918151     0.384219  Biso 1.000000     O
    O   1.0     0.141118     0.917712     0.473288  Biso 1.000000     O
    O   1.0     0.119663     0.688872     0.307481  Biso 1.000000     O
    O   1.0     0.379676     0.583155     0.902696  Biso 1.000000     O
    O   1.0     0.270731     0.616855     0.825213  Biso 1.000000     O
    O   1.0     0.267693     0.918561     0.615660  Biso 1.000000     O
    O   1.0     0.441862     0.917195     0.526019  Biso 1.000000     O
    O   1.0     0.691371     0.688295     0.691917  Biso 1.000000     O
    O   1.0     0.866410     0.416718     0.097096  Biso 1.000000     O
    O   1.0     0.713665     0.383223     0.174492  Biso 1.000000     O
    O   1.0     0.801020     0.082107     0.384201  Biso 1.000000     O
    O   1.0     0.885469     0.082088     0.473491  Biso 1.000000     O
    O   1.0     0.072102     0.311420     0.308538  Biso 1.000000     O
    O   1.0     0.036545     0.097108     0.583130  Biso 1.000000     O
    O   1.0     0.111915     0.175025     0.616088  Biso 1.000000     O
    O   1.0     0.814458     0.384364     0.918072  Biso 1.000000     O
    O   1.0     0.641100     0.473351     0.917621  Biso 1.000000     O
    O   1.0     0.619705     0.307578     0.688807  Biso 1.000000     O
    O   1.0     0.717284     0.902834     0.416093  Biso 1.000000     O
    O   1.0     0.903586     0.825756     0.382269  Biso 1.000000     O
    O   1.0     0.116237     0.615915     0.081369  Biso 1.000000     O
    O   1.0     0.032136     0.526085     0.081960  Biso 1.000000     O
    O   1.0     0.617214     0.689591     0.312554  Biso 1.000000     O
   Ca   1.0     0.535104    -0.000460     0.429658  Biso 1.000000    Ca
   Ca   1.0     0.965363    -0.000398     0.569464  Biso 1.000000    Ca
   Ca   1.0     0.035100     0.429787    -0.000542  Biso 1.000000    Ca
   Ca   1.0     0.465377     0.569567    -0.000494  Biso 1.000000    Ca
   Cd   1.0     0.236605     0.026776     0.499944  Biso 1.000000    Cd
   Cd   1.0     0.762994     0.973548     0.499776  Biso 1.000000    Cd
   Cd   1.0     0.262929     0.499926     0.973453  Biso 1.000000    Cd
   Cd   1.0     0.736577     0.500069     0.026728  Biso 1.000000    Cd
