#======================================================================

# CRYSTAL DATA

#----------------------------------------------------------------------

data_VESTA_phase_1


_pd_phase_name                         MOF
_cell_length_a                         16.97800
_cell_length_b                         23.61200
_cell_length_c                         15.94300
_cell_angle_alpha                      95.36000
_cell_angle_beta                       105.33700
_cell_angle_gamma                      99.08800
_symmetry_space_group_name_H-M         "P 1"
_symmetry_Int_Tables_number            1

loop_
_symmetry_equiv_pos_as_xyz
   "x, y, z"

loop_
   _atom_site_label
   _atom_site_occupancy
   _atom_site_fract_x
   _atom_site_fract_y
   _atom_site_fract_z
   _atom_site_adp_type
   _atom_site_B_iso_or_equiv
   _atom_site_type_symbol
    H   1.0     0.488796     0.216005     0.576147  Biso 1.000000     H
    H   1.0     0.489306     0.715736     0.576356  Biso 1.000000     H
    H   1.0     0.988797     0.216005     0.576147  Biso 1.000000     H
    H   1.0     0.989306     0.715737     0.576356  Biso 1.000000     H
    H   1.0     0.034426     0.290553     0.588826  Biso 1.000000     H
    H   1.0     0.034548     0.790329     0.588821  Biso 1.000000     H
    H   1.0     0.534429     0.290553     0.588825  Biso 1.000000     H
    H   1.0     0.534553     0.790329     0.588822  Biso 1.000000     H
    H   1.0     0.427477     0.202587     0.805297  Biso 1.000000     H
    H   1.0     0.427339     0.702876     0.804283  Biso 1.000000     H
    H   1.0     0.927478     0.202586     0.805297  Biso 1.000000     H
    H   1.0     0.927342     0.702876     0.804284  Biso 1.000000     H
    H   1.0     0.006690     0.221384     0.907902  Biso 1.000000     H
    H   1.0     0.006102     0.721021     0.907326  Biso 1.000000     H
    H   1.0     0.506694     0.221385     0.907902  Biso 1.000000     H
    H   1.0     0.506102     0.721019     0.907326  Biso 1.000000     H
    H   1.0     0.490887     0.283877     0.743437  Biso 1.000000     H
    H   1.0     0.491788     0.784636     0.744128  Biso 1.000000     H
    H   1.0     0.990889     0.283877     0.743438  Biso 1.000000     H
    H   1.0     0.991789     0.784635     0.744126  Biso 1.000000     H
    H   1.0     0.063253     0.313097     0.848029  Biso 1.000000     H
    H   1.0     0.063784     0.813113     0.849220  Biso 1.000000     H
    H   1.0     0.563254     0.313098     0.848028  Biso 1.000000     H
    H   1.0     0.563786     0.813112     0.849224  Biso 1.000000     H
    H   1.0     0.243222     0.175847     0.802462  Biso 1.000000     H
    H   1.0     0.242868     0.675763     0.802821  Biso 1.000000     H
    H   1.0     0.743221     0.175846     0.802460  Biso 1.000000     H
    H   1.0     0.742870     0.675763     0.802822  Biso 1.000000     H
    H   1.0     0.290046     0.166539     0.558986  Biso 1.000000     H
    H   1.0     0.289849     0.666501     0.559418  Biso 1.000000     H
    H   1.0     0.790044     0.166538     0.558986  Biso 1.000000     H
    H   1.0     0.789846     0.666501     0.559417  Biso 1.000000     H
    H   1.0     0.294370     0.062149     0.555134  Biso 1.000000     H
    H   1.0     0.293909     0.562089     0.555429  Biso 1.000000     H
    H   1.0     0.794369     0.062148     0.555132  Biso 1.000000     H
    H   1.0     0.793905     0.562089     0.555427  Biso 1.000000     H
    H   1.0     0.248588     0.072611     0.810220  Biso 1.000000     H
    H   1.0     0.247989     0.572497     0.810447  Biso 1.000000     H
    H   1.0     0.748585     0.072609     0.810217  Biso 1.000000     H
    H   1.0     0.747990     0.572496     0.810447  Biso 1.000000     H
    H   1.0     0.355622     0.488888     0.601595  Biso 1.000000     H
    H   1.0     0.355825     0.988813     0.601035  Biso 1.000000     H
    H   1.0     0.855622     0.488887     0.601594  Biso 1.000000     H
    H   1.0     0.855822     0.988811     0.601034  Biso 1.000000     H
    H   1.0     0.188253     0.480274     0.764942  Biso 1.000000     H
    H   1.0     0.189006     0.980475     0.764984  Biso 1.000000     H
    H   1.0     0.688252     0.480273     0.764941  Biso 1.000000     H
    H   1.0     0.689004     0.980474     0.764985  Biso 1.000000     H
    H   1.0     0.347756     0.383012     0.599707  Biso 1.000000     H
    H   1.0     0.347766     0.882919     0.599147  Biso 1.000000     H
    H   1.0     0.847755     0.383011     0.599707  Biso 1.000000     H
    H   1.0     0.847764     0.882918     0.599147  Biso 1.000000     H
    H   1.0     0.118926     0.027054     0.991239  Biso 1.000000     H
    H   1.0     0.119108     0.527167     0.991833  Biso 1.000000     H
    H   1.0     0.618922     0.027052     0.991231  Biso 1.000000     H
    H   1.0     0.619102     0.527165     0.991815  Biso 1.000000     H
    H   1.0     0.381863     0.058042     0.007684  Biso 1.000000     H
    H   1.0     0.381910     0.557974     0.007624  Biso 1.000000     H
    H   1.0     0.881862     0.058041     0.007686  Biso 1.000000     H
    H   1.0     0.881910     0.557973     0.007633  Biso 1.000000     H
    H   1.0     0.124525     0.131642     0.992555  Biso 1.000000     H
    H   1.0     0.124806     0.631739     0.993151  Biso 1.000000     H
    H   1.0     0.624521     0.131640     0.992549  Biso 1.000000     H
    H   1.0     0.624802     0.631738     0.993141  Biso 1.000000     H
    H   1.0     0.375899     0.160653     0.005071  Biso 1.000000     H
    H   1.0     0.376117     0.660617     0.005305  Biso 1.000000     H
    H   1.0     0.875897     0.160652     0.005074  Biso 1.000000     H
    H   1.0     0.876116     0.660617     0.005311  Biso 1.000000     H
    H   1.0     0.191143     0.374840     0.760283  Biso 1.000000     H
    H   1.0     0.191738     0.875039     0.760366  Biso 1.000000     H
    H   1.0     0.691141     0.374839     0.760281  Biso 1.000000     H
    H   1.0     0.691734     0.875038     0.760365  Biso 1.000000     H
    H   1.0     0.010686     0.284279     0.423657  Biso 1.000000     H
    H   1.0     0.011190     0.784008     0.423862  Biso 1.000000     H
    H   1.0     0.510685     0.284279     0.423657  Biso 1.000000     H
    H   1.0     0.511192     0.784009     0.423863  Biso 1.000000     H
    H   1.0     0.465436     0.209687     0.411188  Biso 1.000000     H
    H   1.0     0.465559     0.709460     0.411186  Biso 1.000000     H
    H   1.0     0.965439     0.209687     0.411187  Biso 1.000000     H
    H   1.0     0.965562     0.709460     0.411187  Biso 1.000000     H
    H   1.0     0.072642     0.297136     0.195721  Biso 1.000000     H
    H   1.0     0.072510     0.797428     0.194715  Biso 1.000000     H
    H   1.0     0.572645     0.297136     0.195723  Biso 1.000000     H
    H   1.0     0.572512     0.797426     0.194710  Biso 1.000000     H
    H   1.0     0.493881     0.278989     0.092682  Biso 1.000000     H
    H   1.0     0.493295     0.778628     0.092106  Biso 1.000000     H
    H   1.0     0.993880     0.278987     0.092682  Biso 1.000000     H
    H   1.0     0.993299     0.778630     0.092108  Biso 1.000000     H
    H   1.0     0.008203     0.215378     0.255888  Biso 1.000000     H
    H   1.0     0.009097     0.716137     0.256572  Biso 1.000000     H
    H   1.0     0.508204     0.215377     0.255885  Biso 1.000000     H
    H   1.0     0.509101     0.716137     0.256572  Biso 1.000000     H
    H   1.0     0.436201     0.186899     0.150791  Biso 1.000000     H
    H   1.0     0.436734     0.686915     0.151981  Biso 1.000000     H
    H   1.0     0.936203     0.186898     0.150796  Biso 1.000000     H
    H   1.0     0.936736     0.686916     0.151981  Biso 1.000000     H
    H   1.0     0.257116     0.324250     0.197189  Biso 1.000000     H
    H   1.0     0.256766     0.824168     0.197549  Biso 1.000000     H
    H   1.0     0.757116     0.324249     0.197187  Biso 1.000000     H
    H   1.0     0.756765     0.824167     0.197548  Biso 1.000000     H
    H   1.0     0.210143     0.333513     0.440595  Biso 1.000000     H
    H   1.0     0.209946     0.833475     0.441025  Biso 1.000000     H
    H   1.0     0.710140     0.333513     0.440593  Biso 1.000000     H
    H   1.0     0.709944     0.833474     0.441023  Biso 1.000000     H
    H   1.0     0.206086     0.437926     0.444585  Biso 1.000000     H
    H   1.0     0.205622     0.937865     0.444879  Biso 1.000000     H
    H   1.0     0.706085     0.437925     0.444582  Biso 1.000000     H
    H   1.0     0.705619     0.937864     0.444878  Biso 1.000000     H
    H   1.0     0.251998     0.427518     0.189564  Biso 1.000000     H
    H   1.0     0.251404     0.927405     0.189794  Biso 1.000000     H
    H   1.0     0.751997     0.427517     0.189562  Biso 1.000000     H
    H   1.0     0.751401     0.927403     0.189792  Biso 1.000000     H
    H   1.0     0.144166     0.011201     0.398977  Biso 1.000000     H
    H   1.0     0.144370     0.511128     0.398419  Biso 1.000000     H
    H   1.0     0.644163     0.011200     0.398976  Biso 1.000000     H
    H   1.0     0.644369     0.511126     0.398416  Biso 1.000000     H
    H   1.0     0.310981     0.019540     0.235023  Biso 1.000000     H
    H   1.0     0.311735     0.519740     0.235066  Biso 1.000000     H
    H   1.0     0.810980     0.019539     0.235024  Biso 1.000000     H
    H   1.0     0.811732     0.519739     0.235063  Biso 1.000000     H
    H   1.0     0.152222     0.117095     0.400865  Biso 1.000000     H
    H   1.0     0.152237     0.617004     0.400306  Biso 1.000000     H
    H   1.0     0.652220     0.117093     0.400865  Biso 1.000000     H
    H   1.0     0.652236     0.617002     0.400305  Biso 1.000000     H
    H   1.0     0.380886     0.472847     0.008189  Biso 1.000000     H
    H   1.0     0.381065     0.972959     0.008776  Biso 1.000000     H
    H   1.0     0.880882     0.472846     0.008180  Biso 1.000000     H
    H   1.0     0.881062     0.972958     0.008771  Biso 1.000000     H
    H   1.0     0.118080     0.442040     0.992382  Biso 1.000000     H
    H   1.0     0.118127     0.941972     0.992327  Biso 1.000000     H
    H   1.0     0.618080     0.442040     0.992391  Biso 1.000000     H
    H   1.0     0.618126     0.941971     0.992332  Biso 1.000000     H
    H   1.0     0.375186     0.368274     0.006868  Biso 1.000000     H
    H   1.0     0.375465     0.868371     0.007453  Biso 1.000000     H
    H   1.0     0.875183     0.368273     0.006858  Biso 1.000000     H
    H   1.0     0.875461     0.868370     0.007449  Biso 1.000000     H
    H   1.0     0.123873     0.339396     0.994703  Biso 1.000000     H
    H   1.0     0.124090     0.839360     0.994936  Biso 1.000000     H
    H   1.0     0.623873     0.339395     0.994704  Biso 1.000000     H
    H   1.0     0.624088     0.839360     0.994936  Biso 1.000000     H
    H   1.0     0.308252     0.124977     0.239646  Biso 1.000000     H
    H   1.0     0.308847     0.625174     0.239727  Biso 1.000000     H
    H   1.0     0.808249     0.124975     0.239646  Biso 1.000000     H
    H   1.0     0.808843     0.625173     0.239723  Biso 1.000000     H
    C   1.0     0.489604     0.254892     0.543363  Biso 1.000000     C
    C   1.0     0.489841     0.754569     0.543449  Biso 1.000000     C
    C   1.0     0.989605     0.254892     0.543362  Biso 1.000000     C
    C   1.0     0.989841     0.754568     0.543448  Biso 1.000000     C
    C   1.0     0.471228     0.238553     0.851012  Biso 1.000000     C
    C   1.0     0.471063     0.738567     0.850608  Biso 1.000000     C
    C   1.0     0.971229     0.238553     0.851012  Biso 1.000000     C
    C   1.0     0.971065     0.738568     0.850608  Biso 1.000000     C
    C   1.0     0.027097     0.273076     0.805810  Biso 1.000000     C
    C   1.0     0.027553     0.773362     0.806343  Biso 1.000000     C
    C   1.0     0.527098     0.273077     0.805810  Biso 1.000000     C
    C   1.0     0.527554     0.773361     0.806345  Biso 1.000000     C
    C   1.0     0.254455     0.149263     0.748875  Biso 1.000000     C
    C   1.0     0.254071     0.649193     0.749217  Biso 1.000000     C
    C   1.0     0.754453     0.149262     0.748872  Biso 1.000000     C
    C   1.0     0.754073     0.649192     0.749218  Biso 1.000000     C
    C   1.0     0.280704     0.143989     0.613206  Biso 1.000000     C
    C   1.0     0.280409     0.643948     0.613595  Biso 1.000000     C
    C   1.0     0.780703     0.143988     0.613206  Biso 1.000000     C
    C   1.0     0.780408     0.643948     0.613595  Biso 1.000000     C
    C   1.0     0.283801     0.085474     0.612149  Biso 1.000000     C
    C   1.0     0.283356     0.585410     0.612458  Biso 1.000000     C
    C   1.0     0.783796     0.085472     0.612145  Biso 1.000000     C
    C   1.0     0.783353     0.585409     0.612456  Biso 1.000000     C
    C   1.0     0.256956     0.090972     0.752314  Biso 1.000000     C
    C   1.0     0.256428     0.590877     0.752579  Biso 1.000000     C
    C   1.0     0.756951     0.090971     0.752311  Biso 1.000000     C
    C   1.0     0.756428     0.590876     0.752578  Biso 1.000000     C
    C   1.0     0.271435     0.057251     0.682626  Biso 1.000000     C
    C   1.0     0.270935     0.557173     0.682901  Biso 1.000000     C
    C   1.0     0.771436     0.057251     0.682625  Biso 1.000000     C
    C   1.0     0.770936     0.557172     0.682901  Biso 1.000000     C
    C   1.0     0.271748     0.494541     0.683093  Biso 1.000000     C
    C   1.0     0.272235     0.994616     0.682833  Biso 1.000000     C
    C   1.0     0.771745     0.494540     0.683090  Biso 1.000000     C
    C   1.0     0.772235     0.994616     0.682833  Biso 1.000000     C
    C   1.0     0.316966     0.465573     0.636794  Biso 1.000000     C
    C   1.0     0.317249     0.965560     0.636372  Biso 1.000000     C
    C   1.0     0.816967     0.465572     0.636794  Biso 1.000000     C
    C   1.0     0.817246     0.965558     0.636370  Biso 1.000000     C
    C   1.0     0.225980     0.461035     0.728814  Biso 1.000000     C
    C   1.0     0.226576     0.961173     0.728719  Biso 1.000000     C
    C   1.0     0.725980     0.461035     0.728814  Biso 1.000000     C
    C   1.0     0.726573     0.961173     0.728717  Biso 1.000000     C
    C   1.0     0.313902     0.406266     0.636439  Biso 1.000000     C
    C   1.0     0.314076     0.906238     0.636012  Biso 1.000000     C
    C   1.0     0.813898     0.406265     0.636435  Biso 1.000000     C
    C   1.0     0.814071     0.906236     0.636009  Biso 1.000000     C
    C   1.0     0.177997     0.054470     0.995145  Biso 1.000000     C
    C   1.0     0.178161     0.554537     0.995561  Biso 1.000000     C
    C   1.0     0.677993     0.054468     0.995139  Biso 1.000000     C
    C   1.0     0.678155     0.554535     0.995542  Biso 1.000000     C
    C   1.0     0.322678     0.071263     0.004244  Biso 1.000000     C
    C   1.0     0.322775     0.571237     0.004325  Biso 1.000000     C
    C   1.0     0.822676     0.071262     0.004242  Biso 1.000000     C
    C   1.0     0.822772     0.571235     0.004317  Biso 1.000000     C
    C   1.0     0.250222     0.031474     0.999923  Biso 1.000000     C
    C   1.0     0.250294     0.531486     0.000000  Biso 1.000000     C
    C   1.0     0.750219     0.031473     0.999918  Biso 1.000000     C
    C   1.0     0.750297     0.531488     0.000000  Biso 1.000000     C
    C   1.0     0.180352     0.113596     0.995616  Biso 1.000000     C
    C   1.0     0.180588     0.613667     0.996082  Biso 1.000000     C
    C   1.0     0.680349     0.113594     0.995613  Biso 1.000000     C
    C   1.0     0.680587     0.613667     0.996090  Biso 1.000000     C
    C   1.0     0.320466     0.129834     0.003914  Biso 1.000000     C
    C   1.0     0.320650     0.629829     0.004134  Biso 1.000000     C
    C   1.0     0.820464     0.129833     0.003918  Biso 1.000000     C
    C   1.0     0.820653     0.629830     0.004153  Biso 1.000000     C
    C   1.0     0.226465     0.402089     0.726061  Biso 1.000000     C
    C   1.0     0.226953     0.902216     0.725968  Biso 1.000000     C
    C   1.0     0.726462     0.402088     0.726057  Biso 1.000000     C
    C   1.0     0.726947     0.902215     0.725965  Biso 1.000000     C
    C   1.0     0.010148     0.245446     0.456563  Biso 1.000000     C
    C   1.0     0.010383     0.745122     0.456649  Biso 1.000000     C
    C   1.0     0.510148     0.245446     0.456562  Biso 1.000000     C
    C   1.0     0.510384     0.745123     0.456648  Biso 1.000000     C
    C   1.0     0.028921     0.261442     0.149400  Biso 1.000000     C
    C   1.0     0.028759     0.761462     0.148999  Biso 1.000000     C
    C   1.0     0.528924     0.261443     0.149400  Biso 1.000000     C
    C   1.0     0.528760     0.761460     0.148996  Biso 1.000000     C
    C   1.0     0.472435     0.226650     0.193668  Biso 1.000000     C
    C   1.0     0.472890     0.726937     0.194199  Biso 1.000000     C
    C   1.0     0.972437     0.226649     0.193670  Biso 1.000000     C
    C   1.0     0.972890     0.726938     0.194199  Biso 1.000000     C
    C   1.0     0.245915     0.350822     0.250793  Biso 1.000000     C
    C   1.0     0.245530     0.850750     0.251135  Biso 1.000000     C
    C   1.0     0.745909     0.350820     0.250788  Biso 1.000000     C
    C   1.0     0.745532     0.850750     0.251135  Biso 1.000000     C
    C   1.0     0.219581     0.356066     0.386416  Biso 1.000000     C
    C   1.0     0.219281     0.856025     0.386803  Biso 1.000000     C
    C   1.0     0.719575     0.356065     0.386412  Biso 1.000000     C
    C   1.0     0.719283     0.856024     0.386803  Biso 1.000000     C
    C   1.0     0.216636     0.414605     0.387555  Biso 1.000000     C
    C   1.0     0.216199     0.914542     0.387868  Biso 1.000000     C
    C   1.0     0.716639     0.414605     0.387555  Biso 1.000000     C
    C   1.0     0.716191     0.914540     0.387864  Biso 1.000000     C
    C   1.0     0.243560     0.409138     0.247432  Biso 1.000000     C
    C   1.0     0.243042     0.909044     0.247702  Biso 1.000000     C
    C   1.0     0.743564     0.409137     0.247432  Biso 1.000000     C
    C   1.0     0.743035     0.909042     0.247698  Biso 1.000000     C
    C   1.0     0.229056     0.442842     0.317112  Biso 1.000000     C
    C   1.0     0.228546     0.942762     0.317382  Biso 1.000000     C
    C   1.0     0.729047     0.442840     0.317105  Biso 1.000000     C
    C   1.0     0.728551     0.942762     0.317384  Biso 1.000000     C
    C   1.0     0.227755     0.005398     0.317180  Biso 1.000000     C
    C   1.0     0.228244     0.505474     0.316921  Biso 1.000000     C
    C   1.0     0.727751     0.005396     0.317177  Biso 1.000000     C
    C   1.0     0.728243     0.505473     0.316919  Biso 1.000000     C
    C   1.0     0.182741     0.034455     0.363641  Biso 1.000000     C
    C   1.0     0.183023     0.534442     0.363216  Biso 1.000000     C
    C   1.0     0.682738     0.034453     0.363639  Biso 1.000000     C
    C   1.0     0.683023     0.534441     0.363216  Biso 1.000000     C
    C   1.0     0.273414     0.038841     0.271294  Biso 1.000000     C
    C   1.0     0.274008     0.538979     0.271194  Biso 1.000000     C
    C   1.0     0.773411     0.038840     0.271292  Biso 1.000000     C
    C   1.0     0.774006     0.538978     0.271192  Biso 1.000000     C
    C   1.0     0.185919     0.093777     0.364005  Biso 1.000000     C
    C   1.0     0.186094     0.593750     0.363578  Biso 1.000000     C
    C   1.0     0.685915     0.093776     0.364003  Biso 1.000000     C
    C   1.0     0.686091     0.593749     0.363575  Biso 1.000000     C
    C   1.0     0.321832     0.445476     0.004457  Biso 1.000000     C
    C   1.0     0.321994     0.945544     0.004867  Biso 1.000000     C
    C   1.0     0.821831     0.445476     0.004461  Biso 1.000000     C
    C   1.0     0.821991     0.945543     0.004866  Biso 1.000000     C
    C   1.0     0.177216     0.428776     0.995685  Biso 1.000000     C
    C   1.0     0.177312     0.928750     0.995768  Biso 1.000000     C
    C   1.0     0.677217     0.428777     0.995698  Biso 1.000000     C
    C   1.0     0.677310     0.928749     0.995769  Biso 1.000000     C
    C   1.0     0.249697     0.468527    -0.000038  Biso 1.000000     C
    C   1.0     0.249769     0.968540     0.000092  Biso 1.000000     C
    C   1.0     0.749690     0.468524    -0.000063  Biso 1.000000     C
    C   1.0     0.749768     0.968539     0.000094  Biso 1.000000     C
    C   1.0     0.319404     0.386347     0.003934  Biso 1.000000     C
    C   1.0     0.319637     0.886417     0.004388  Biso 1.000000     C
    C   1.0     0.819397     0.386344     0.003909  Biso 1.000000     C
    C   1.0     0.819633     0.886415     0.004382  Biso 1.000000     C
    C   1.0     0.179340     0.370184     0.995876  Biso 1.000000     C
    C   1.0     0.179522     0.870178     0.996087  Biso 1.000000     C
    C   1.0     0.679335     0.370182     0.995858  Biso 1.000000     C
    C   1.0     0.679520     0.870177     0.996086  Biso 1.000000     C
    C   1.0     0.273041     0.097799     0.274047  Biso 1.000000     C
    C   1.0     0.273529     0.597926     0.273953  Biso 1.000000     C
    C   1.0     0.773037     0.097797     0.274046  Biso 1.000000     C
    C   1.0     0.773525     0.597925     0.273950  Biso 1.000000     C
    N   1.0     0.250626     0.151125     0.000000  Biso 1.000000     N
    N   1.0     0.250849     0.651150     0.000000  Biso 1.000000     N
    N   1.0     0.750623     0.151124     0.000000  Biso 1.000000     N
    N   1.0     0.750841     0.651147     0.000000  Biso 1.000000     N
    N   1.0     0.266168     0.175706     0.680515  Biso 1.000000     N
    N   1.0     0.265911     0.675670     0.680928  Biso 1.000000     N
    N   1.0     0.766165     0.175706     0.680512  Biso 1.000000     N
    N   1.0     0.765909     0.675670     0.680928  Biso 1.000000     N
    N   1.0     0.269059     0.374649     0.680098  Biso 1.000000     N
    N   1.0     0.269323     0.874686     0.679828  Biso 1.000000     N
    N   1.0     0.769061     0.374649     0.680101  Biso 1.000000     N
    N   1.0     0.769322     0.874686     0.679831  Biso 1.000000     N
    N   1.0     0.249142     0.348863    -0.000858  Biso 1.000000     N
    N   1.0     0.249364     0.848888    -0.000567  Biso 1.000000     N
    N   1.0     0.749146     0.348865    -0.000833  Biso 1.000000     N
    N   1.0     0.749362     0.848887    -0.000567  Biso 1.000000     N
    N   1.0     0.234077     0.324343     0.319082  Biso 1.000000     N
    N   1.0     0.233832     0.824310     0.319502  Biso 1.000000     N
    N   1.0     0.734084     0.324344     0.319085  Biso 1.000000     N
    N   1.0     0.733822     0.824307     0.319497  Biso 1.000000     N
    N   1.0     0.230663     0.125327     0.320178  Biso 1.000000     N
    N   1.0     0.230925     0.625364     0.319906  Biso 1.000000     N
    N   1.0     0.730660     0.125326     0.320179  Biso 1.000000     N
    N   1.0     0.730927     0.625364     0.319907  Biso 1.000000     N
    O   1.0     0.377760     0.275915     0.619379  Biso 1.000000     O
    O   1.0     0.377975     0.775166     0.619629  Biso 1.000000     O
    O   1.0     0.877760     0.275915     0.619379  Biso 1.000000     O
    O   1.0     0.877973     0.775165     0.619627  Biso 1.000000     O
    O   1.0     0.390754     0.330533     0.496559  Biso 1.000000     O
    O   1.0     0.390514     0.829919     0.496742  Biso 1.000000     O
    O   1.0     0.890753     0.330532     0.496558  Biso 1.000000     O
    O   1.0     0.890513     0.829918     0.496740  Biso 1.000000     O
    O   1.0     0.328519     0.225495     0.466718  Biso 1.000000     O
    O   1.0     0.328728     0.724892     0.466919  Biso 1.000000     O
    O   1.0     0.828520     0.225494     0.466718  Biso 1.000000     O
    O   1.0     0.828729     0.724892     0.466917  Biso 1.000000     O
    O   1.0     0.357712     0.243506     0.932038  Biso 1.000000     O
    O   1.0     0.356798     0.743227     0.930658  Biso 1.000000     O
    O   1.0     0.857709     0.243504     0.932034  Biso 1.000000     O
    O   1.0     0.856800     0.743227     0.930657  Biso 1.000000     O
    O   1.0     0.360201     0.306677     0.816785  Biso 1.000000     O
    O   1.0     0.360923     0.807451     0.816908  Biso 1.000000     O
    O   1.0     0.860202     0.306675     0.816782  Biso 1.000000     O
    O   1.0     0.860924     0.807451     0.816907  Biso 1.000000     O
    O   1.0     0.469774     0.330035     0.958085  Biso 1.000000     O
    O   1.0     0.469727     0.829477     0.958745  Biso 1.000000     O
    O   1.0     0.969772     0.330033     0.958085  Biso 1.000000     O
    O   1.0     0.969728     0.829478     0.958745  Biso 1.000000     O
    O   1.0     0.147999     0.216838     0.865331  Biso 1.000000     O
    O   1.0     0.147417     0.716072     0.865198  Biso 1.000000     O
    O   1.0     0.647999     0.216838     0.865330  Biso 1.000000     O
    O   1.0     0.647417     0.716070     0.865199  Biso 1.000000     O
    O   1.0     0.155393     0.276687     0.746884  Biso 1.000000     O
    O   1.0     0.156625     0.777348     0.748739  Biso 1.000000     O
    O   1.0     0.655394     0.276687     0.746883  Biso 1.000000     O
    O   1.0     0.656628     0.777349     0.748743  Biso 1.000000     O
    O   1.0     0.055843     0.182524     0.715896  Biso 1.000000     O
    O   1.0     0.056165     0.683422     0.715023  Biso 1.000000     O
    O   1.0     0.555843     0.182524     0.715896  Biso 1.000000     O
    O   1.0     0.556166     0.683423     0.715023  Biso 1.000000     O
    O   1.0     0.122012     0.224845     0.380381  Biso 1.000000     O
    O   1.0     0.122229     0.724102     0.380633  Biso 1.000000     O
    O   1.0     0.622011     0.224844     0.380380  Biso 1.000000     O
    O   1.0     0.622230     0.724101     0.380633  Biso 1.000000     O
    O   1.0     0.109477     0.170094     0.503268  Biso 1.000000     O
    O   1.0     0.109233     0.669481     0.503450  Biso 1.000000     O
    O   1.0     0.609477     0.170094     0.503267  Biso 1.000000     O
    O   1.0     0.609232     0.669481     0.503449  Biso 1.000000     O
    O   1.0     0.171258     0.275123     0.533093  Biso 1.000000     O
    O   1.0     0.171466     0.774521     0.533297  Biso 1.000000     O
    O   1.0     0.671259     0.275122     0.533091  Biso 1.000000     O
    O   1.0     0.671468     0.774519     0.533296  Biso 1.000000     O
    O   1.0     0.143190     0.256779     0.069348  Biso 1.000000     O
    O   1.0     0.142281     0.756512     0.067980  Biso 1.000000     O
    O   1.0     0.643191     0.256779     0.069347  Biso 1.000000     O
    O   1.0     0.642276     0.756507     0.067970  Biso 1.000000     O
    O   1.0     0.139064     0.192559     0.183101  Biso 1.000000     O
    O   1.0     0.139789     0.693340     0.183230  Biso 1.000000     O
    O   1.0     0.639066     0.192558     0.183100  Biso 1.000000     O
    O   1.0     0.639791     0.693338     0.183226  Biso 1.000000     O
    O   1.0     0.030261     0.170531     0.041264  Biso 1.000000     O
    O   1.0     0.030220     0.669983     0.041926  Biso 1.000000     O
    O   1.0     0.530262     0.170531     0.041265  Biso 1.000000     O
    O   1.0     0.530216     0.669978     0.041926  Biso 1.000000     O
    O   1.0     0.352565     0.283933     0.134814  Biso 1.000000     O
    O   1.0     0.351986     0.783175     0.134678  Biso 1.000000     O
    O   1.0     0.852563     0.283931     0.134818  Biso 1.000000     O
    O   1.0     0.851985     0.783173     0.134677  Biso 1.000000     O
    O   1.0     0.343375     0.222669     0.251293  Biso 1.000000     O
    O   1.0     0.344592     0.723325     0.253123  Biso 1.000000     O
    O   1.0     0.843380     0.222669     0.251302  Biso 1.000000     O
    O   1.0     0.844591     0.723324     0.253122  Biso 1.000000     O
    O   1.0     0.443832     0.316594     0.284983  Biso 1.000000     O
    O   1.0     0.444144     0.817488     0.284114  Biso 1.000000     O
    O   1.0     0.943835     0.316595     0.284984  Biso 1.000000     O
    O   1.0     0.944141     0.817488     0.284113  Biso 1.000000     O
    S   1.0     0.389111     0.274553     0.529221  Biso 1.000000     S
    S   1.0     0.389219     0.773962     0.529446  Biso 1.000000     S
    S   1.0     0.889111     0.274553     0.529220  Biso 1.000000     S
    S   1.0     0.889218     0.773961     0.529444  Biso 1.000000     S
    S   1.0     0.410578     0.283819     0.892755  Biso 1.000000     S
    S   1.0     0.410463     0.783793     0.892537  Biso 1.000000     S
    S   1.0     0.910577     0.283818     0.892753  Biso 1.000000     S
    S   1.0     0.910465     0.783793     0.892537  Biso 1.000000     S
    S   1.0     0.101267     0.233021     0.780192  Biso 1.000000     S
    S   1.0     0.101608     0.733313     0.780484  Biso 1.000000     S
    S   1.0     0.601268     0.233021     0.780191  Biso 1.000000     S
    S   1.0     0.601609     0.733313     0.780486  Biso 1.000000     S
    S   1.0     0.110770     0.226052     0.470566  Biso 1.000000     S
    S   1.0     0.110877     0.725462     0.470791  Biso 1.000000     S
    S   1.0     0.610769     0.226051     0.470564  Biso 1.000000     S
    S   1.0     0.610877     0.725461     0.470790  Biso 1.000000     S
    S   1.0     0.089523     0.216217     0.107472  Biso 1.000000     S
    S   1.0     0.089413     0.716198     0.107259  Biso 1.000000     S
    S   1.0     0.589525     0.216217     0.107472  Biso 1.000000     S
    S   1.0     0.589411     0.716194     0.107255  Biso 1.000000     S
    S   1.0     0.398383     0.266700     0.219531  Biso 1.000000     S
    S   1.0     0.398720     0.766992     0.219817  Biso 1.000000     S
    S   1.0     0.898385     0.266699     0.219535  Biso 1.000000     S
    S   1.0     0.898718     0.766992     0.219816  Biso 1.000000     S
   Cd   1.0     0.259812     0.273218     0.674840  Biso 1.000000    Cd
   Cd   1.0     0.260159     0.773278     0.675319  Biso 1.000000    Cd
   Cd   1.0     0.759811     0.273217     0.674839  Biso 1.000000    Cd
   Cd   1.0     0.760159     0.773277     0.675320  Biso 1.000000    Cd
   Cd   1.0     0.239827     0.226736     0.324692  Biso 1.000000    Cd
   Cd   1.0     0.240179     0.726797     0.325172  Biso 1.000000    Cd
   Cd   1.0     0.739827     0.226736     0.324693  Biso 1.000000    Cd
   Cd   1.0     0.740177     0.726796     0.325170  Biso 1.000000    Cd
   Cd   1.0     0.250134     0.250065     0.000211  Biso 1.000000    Cd
   Cd   1.0     0.249864     0.749949    -0.000199  Biso 1.000000    Cd
   Cd   1.0     0.750134     0.250064     0.000211  Biso 1.000000    Cd
   Cd   1.0     0.749863     0.749949    -0.000201  Biso 1.000000    Cd
