#======================================================================

# CRYSTAL DATA

#----------------------------------------------------------------------

data_VESTA_phase_1


_pd_phase_name                         MOF
_cell_length_a                         9.64700
_cell_length_b                         19.51200
_cell_length_c                         23.02900
_cell_angle_alpha                      89.99800
_cell_angle_beta                       93.39700
_cell_angle_gamma                      89.99900
_symmetry_space_group_name_H-M         "P 1"
_symmetry_Int_Tables_number            1

loop_
_symmetry_equiv_pos_as_xyz
   "x, y, z"

loop_
   _atom_site_label
   _atom_site_occupancy
   _atom_site_fract_x
   _atom_site_fract_y
   _atom_site_fract_z
   _atom_site_adp_type
   _atom_site_B_iso_or_equiv
   _atom_site_type_symbol
    H   1.0     0.394826     0.028864     0.870747  Biso 1.000000     H
    H   1.0     0.394828     0.528864     0.870747  Biso 1.000000     H
    H   1.0     0.894838     0.028865     0.870747  Biso 1.000000     H
    H   1.0     0.894852     0.528865     0.870746  Biso 1.000000     H
    H   1.0     0.062875     0.382431     0.581115  Biso 1.000000     H
    H   1.0     0.062895     0.882433     0.581115  Biso 1.000000     H
    H   1.0     0.562887     0.382431     0.581115  Biso 1.000000     H
    H   1.0     0.562909     0.882434     0.581116  Biso 1.000000     H
    H   1.0     0.327629     0.323400     0.910798  Biso 1.000000     H
    H   1.0     0.327638     0.823406     0.910798  Biso 1.000000     H
    H   1.0     0.827641     0.323403     0.910798  Biso 1.000000     H
    H   1.0     0.827651     0.823405     0.910797  Biso 1.000000     H
    H   1.0     0.481618     0.368430     0.683057  Biso 1.000000     H
    H   1.0     0.481641     0.868435     0.683058  Biso 1.000000     H
    H   1.0     0.981626     0.368427     0.683058  Biso 1.000000     H
    H   1.0     0.981653     0.868434     0.683059  Biso 1.000000     H
    H   1.0     0.050336     0.388765     0.785259  Biso 1.000000     H
    H   1.0     0.050355     0.888771     0.785262  Biso 1.000000     H
    H   1.0     0.550345     0.388767     0.785260  Biso 1.000000     H
    H   1.0     0.550368     0.888772     0.785261  Biso 1.000000     H
    H   1.0     0.261689     0.058906     0.787494  Biso 1.000000     H
    H   1.0     0.261695     0.558908     0.787494  Biso 1.000000     H
    H   1.0     0.761710     0.058909     0.787493  Biso 1.000000     H
    H   1.0     0.761722     0.558913     0.787492  Biso 1.000000     H
    H   1.0     0.189637     0.036903     0.685350  Biso 1.000000     H
    H   1.0     0.189641     0.536907     0.685350  Biso 1.000000     H
    H   1.0     0.689660     0.036906     0.685350  Biso 1.000000     H
    H   1.0     0.689662     0.536910     0.685349  Biso 1.000000     H
    H   1.0     0.140491     0.438228     0.867076  Biso 1.000000     H
    H   1.0     0.140495     0.938235     0.867081  Biso 1.000000     H
    H   1.0     0.640499     0.438231     0.867075  Biso 1.000000     H
    H   1.0     0.640507     0.938233     0.867078  Biso 1.000000     H
    H   1.0     0.079376     0.482271     0.926433  Biso 1.000000     H
    H   1.0     0.079380     0.982279     0.926438  Biso 1.000000     H
    H   1.0     0.579380     0.482271     0.926434  Biso 1.000000     H
    H   1.0     0.579395     0.982278     0.926436  Biso 1.000000     H
    H   1.0     0.105238     0.278860     0.629221  Biso 1.000000     H
    H   1.0     0.105252     0.778864     0.629220  Biso 1.000000     H
    H   1.0     0.605260     0.278860     0.629221  Biso 1.000000     H
    H   1.0     0.605273     0.778864     0.629220  Biso 1.000000     H
    H   1.0     0.437231     0.132427     0.918860  Biso 1.000000     H
    H   1.0     0.437238     0.632430     0.918859  Biso 1.000000     H
    H   1.0     0.937242     0.132427     0.918860  Biso 1.000000     H
    H   1.0     0.937250     0.632430     0.918859  Biso 1.000000     H
    H   1.0     0.172497     0.073415     0.589179  Biso 1.000000     H
    H   1.0     0.172495     0.573418     0.589178  Biso 1.000000     H
    H   1.0     0.672509     0.073413     0.589178  Biso 1.000000     H
    H   1.0     0.672507     0.573415     0.589178  Biso 1.000000     H
    H   1.0     0.018479     0.118430     0.816923  Biso 1.000000     H
    H   1.0     0.018484     0.618437     0.816923  Biso 1.000000     H
    H   1.0     0.518490     0.118432     0.816924  Biso 1.000000     H
    H   1.0     0.518496     0.618438     0.816923  Biso 1.000000     H
    H   1.0     0.449750     0.138765     0.714721  Biso 1.000000     H
    H   1.0     0.449756     0.638772     0.714721  Biso 1.000000     H
    H   1.0     0.949757     0.138765     0.714722  Biso 1.000000     H
    H   1.0     0.949764     0.638773     0.714722  Biso 1.000000     H
    H   1.0     0.238366     0.308908     0.712468  Biso 1.000000     H
    H   1.0     0.238377     0.808913     0.712468  Biso 1.000000     H
    H   1.0     0.738390     0.308905     0.712467  Biso 1.000000     H
    H   1.0     0.738400     0.808910     0.712466  Biso 1.000000     H
    H   1.0     0.310439     0.286909     0.814611  Biso 1.000000     H
    H   1.0     0.310448     0.786914     0.814611  Biso 1.000000     H
    H   1.0     0.810457     0.286907     0.814611  Biso 1.000000     H
    H   1.0     0.810466     0.786912     0.814611  Biso 1.000000     H
    H   1.0     0.359609     0.188214     0.632896  Biso 1.000000     H
    H   1.0     0.359617     0.688223     0.632895  Biso 1.000000     H
    H   1.0     0.859619     0.188213     0.632895  Biso 1.000000     H
    H   1.0     0.859625     0.688222     0.632895  Biso 1.000000     H
    H   1.0     0.420699     0.232267     0.573537  Biso 1.000000     H
    H   1.0     0.420708     0.732274     0.573536  Biso 1.000000     H
    H   1.0     0.920704     0.232267     0.573537  Biso 1.000000     H
    H   1.0     0.920716     0.732274     0.573536  Biso 1.000000     H
    H   1.0     0.105230     0.471134     0.129239  Biso 1.000000     H
    H   1.0     0.105242     0.971135     0.129240  Biso 1.000000     H
    H   1.0     0.605241     0.471135     0.129239  Biso 1.000000     H
    H   1.0     0.605258     0.971135     0.129240  Biso 1.000000     H
    H   1.0     0.437259     0.117569     0.418869  Biso 1.000000     H
    H   1.0     0.437258     0.617572     0.418868  Biso 1.000000     H
    H   1.0     0.937272     0.117570     0.418869  Biso 1.000000     H
    H   1.0     0.937272     0.617573     0.418869  Biso 1.000000     H
    H   1.0     0.172450     0.176589     0.089189  Biso 1.000000     H
    H   1.0     0.172454     0.676593     0.089188  Biso 1.000000     H
    H   1.0     0.672464     0.176589     0.089189  Biso 1.000000     H
    H   1.0     0.672468     0.676592     0.089188  Biso 1.000000     H
    H   1.0     0.018493     0.131568     0.316933  Biso 1.000000     H
    H   1.0     0.018498     0.631574     0.316931  Biso 1.000000     H
    H   1.0     0.518505     0.131567     0.316933  Biso 1.000000     H
    H   1.0     0.518514     0.631575     0.316931  Biso 1.000000     H
    H   1.0     0.449744     0.111230     0.214735  Biso 1.000000     H
    H   1.0     0.449752     0.611236     0.214733  Biso 1.000000     H
    H   1.0     0.949756     0.111231     0.214734  Biso 1.000000     H
    H   1.0     0.949764     0.611235     0.214732  Biso 1.000000     H
    H   1.0     0.238369     0.441086     0.212487  Biso 1.000000     H
    H   1.0     0.238385     0.941088     0.212486  Biso 1.000000     H
    H   1.0     0.738388     0.441089     0.212487  Biso 1.000000     H
    H   1.0     0.738408     0.941091     0.212485  Biso 1.000000     H
    H   1.0     0.310456     0.463089     0.314627  Biso 1.000000     H
    H   1.0     0.310472     0.963090     0.314626  Biso 1.000000     H
    H   1.0     0.810478     0.463093     0.314626  Biso 1.000000     H
    H   1.0     0.810495     0.963094     0.314625  Biso 1.000000     H
    H   1.0     0.359592     0.061775     0.132911  Biso 1.000000     H
    H   1.0     0.359589     0.561779     0.132913  Biso 1.000000     H
    H   1.0     0.859603     0.061775     0.132909  Biso 1.000000     H
    H   1.0     0.859600     0.561778     0.132911  Biso 1.000000     H
    H   1.0     0.420685     0.017723     0.073554  Biso 1.000000     H
    H   1.0     0.420687     0.517730     0.073555  Biso 1.000000     H
    H   1.0     0.920696     0.017722     0.073553  Biso 1.000000     H
    H   1.0     0.920704     0.517730     0.073554  Biso 1.000000     H
    H   1.0     0.394869     0.221143     0.370762  Biso 1.000000     H
    H   1.0     0.394880     0.721150     0.370763  Biso 1.000000     H
    H   1.0     0.894875     0.221143     0.370763  Biso 1.000000     H
    H   1.0     0.894894     0.721149     0.370763  Biso 1.000000     H
    H   1.0     0.062827     0.367568     0.081122  Biso 1.000000     H
    H   1.0     0.062833     0.867571     0.081122  Biso 1.000000     H
    H   1.0     0.562841     0.367567     0.081123  Biso 1.000000     H
    H   1.0     0.562847     0.867570     0.081123  Biso 1.000000     H
    H   1.0     0.327690     0.426605     0.410809  Biso 1.000000     H
    H   1.0     0.327716     0.926611     0.410810  Biso 1.000000     H
    H   1.0     0.827704     0.426608     0.410809  Biso 1.000000     H
    H   1.0     0.827731     0.926612     0.410810  Biso 1.000000     H
    H   1.0     0.481576     0.381569     0.183052  Biso 1.000000     H
    H   1.0     0.481586     0.881573     0.183051  Biso 1.000000     H
    H   1.0     0.981595     0.381567     0.183052  Biso 1.000000     H
    H   1.0     0.981600     0.881573     0.183051  Biso 1.000000     H
    H   1.0     0.050327     0.361238     0.285254  Biso 1.000000     H
    H   1.0     0.050339     0.861245     0.285252  Biso 1.000000     H
    H   1.0     0.550340     0.361239     0.285253  Biso 1.000000     H
    H   1.0     0.550352     0.861244     0.285251  Biso 1.000000     H
    H   1.0     0.261713     0.191094     0.287520  Biso 1.000000     H
    H   1.0     0.261719     0.691102     0.287521  Biso 1.000000     H
    H   1.0     0.761728     0.191093     0.287520  Biso 1.000000     H
    H   1.0     0.761741     0.691098     0.287521  Biso 1.000000     H
    H   1.0     0.189624     0.213089     0.185377  Biso 1.000000     H
    H   1.0     0.189627     0.713096     0.185379  Biso 1.000000     H
    H   1.0     0.689645     0.213086     0.185376  Biso 1.000000     H
    H   1.0     0.689651     0.713092     0.185378  Biso 1.000000     H
    H   1.0     0.140517     0.311770     0.367070  Biso 1.000000     H
    H   1.0     0.140538     0.811774     0.367065  Biso 1.000000     H
    H   1.0     0.640530     0.311773     0.367066  Biso 1.000000     H
    H   1.0     0.640549     0.811775     0.367062  Biso 1.000000     H
    H   1.0     0.079436     0.267723     0.426434  Biso 1.000000     H
    H   1.0     0.079467     0.767727     0.426431  Biso 1.000000     H
    H   1.0     0.579459     0.267724     0.426432  Biso 1.000000     H
    H   1.0     0.579481     0.767727     0.426429  Biso 1.000000     H
    C   1.0     0.332098     0.451584     0.676787  Biso 1.000000     C
    C   1.0     0.332118     0.951586     0.676787  Biso 1.000000     C
    C   1.0     0.832112     0.451583     0.676787  Biso 1.000000     C
    C   1.0     0.832136     0.951587     0.676787  Biso 1.000000     C
    C   1.0     0.432941     0.410212     0.705698  Biso 1.000000     C
    C   1.0     0.432962     0.910215     0.705699  Biso 1.000000     C
    C   1.0     0.932954     0.410211     0.705697  Biso 1.000000     C
    C   1.0     0.932976     0.910215     0.705699  Biso 1.000000     C
    C   1.0     0.471987     0.421836     0.763949  Biso 1.000000     C
    C   1.0     0.472009     0.921841     0.763950  Biso 1.000000     C
    C   1.0     0.972001     0.421834     0.763949  Biso 1.000000     C
    C   1.0     0.972024     0.921842     0.763950  Biso 1.000000     C
    C   1.0     0.412490     0.476326     0.794452  Biso 1.000000     C
    C   1.0     0.412504     0.976330     0.794452  Biso 1.000000     C
    C   1.0     0.912510     0.476327     0.794451  Biso 1.000000     C
    C   1.0     0.912519     0.976331     0.794452  Biso 1.000000     C
    C   1.0     0.309774     0.017090     0.764595  Biso 1.000000     C
    C   1.0     0.309776     0.517091     0.764595  Biso 1.000000     C
    C   1.0     0.809794     0.017093     0.764594  Biso 1.000000     C
    C   1.0     0.809795     0.517092     0.764594  Biso 1.000000     C
    C   1.0     0.269542     0.504820     0.706781  Biso 1.000000     C
    C   1.0     0.269556     0.000000     0.706781  Biso 1.000000     C
    C   1.0     0.769562     0.504822     0.706780  Biso 1.000000     C
    C   1.0     0.769576     0.000000     0.706780  Biso 1.000000     C
    C   1.0     0.044781     0.451473     0.888300  Biso 1.000000     C
    C   1.0     0.044785     0.951480     0.888306  Biso 1.000000     C
    C   1.0     0.544788     0.451473     0.888300  Biso 1.000000     C
    C   1.0     0.544798     0.951479     0.888304  Biso 1.000000     C
    C   1.0    -0.013081     0.384536     0.911336  Biso 1.000000     C
    C   1.0    -0.013072     0.884540     0.911339  Biso 1.000000     C
    C   1.0     0.486930     0.384535     0.911336  Biso 1.000000     C
    C   1.0     0.486940     0.884540     0.911338  Biso 1.000000     C
    C   1.0     0.167992     0.201584     0.823186  Biso 1.000000     C
    C   1.0     0.168000     0.701590     0.823185  Biso 1.000000     C
    C   1.0     0.668006     0.201585     0.823185  Biso 1.000000     C
    C   1.0     0.668013     0.701590     0.823185  Biso 1.000000     C
    C   1.0     0.067149     0.160212     0.794280  Biso 1.000000     C
    C   1.0     0.067155     0.660219     0.794279  Biso 1.000000     C
    C   1.0     0.567163     0.160212     0.794279  Biso 1.000000     C
    C   1.0     0.567170     0.660218     0.794279  Biso 1.000000     C
    C   1.0     0.028091     0.171836     0.736028  Biso 1.000000     C
    C   1.0     0.028098     0.671843     0.736028  Biso 1.000000     C
    C   1.0     0.528105     0.171837     0.736028  Biso 1.000000     C
    C   1.0     0.528112     0.671844     0.736027  Biso 1.000000     C
    C   1.0     0.087581     0.226326     0.705520  Biso 1.000000     C
    C   1.0     0.087590     0.726332     0.705520  Biso 1.000000     C
    C   1.0     0.587599     0.226325     0.705519  Biso 1.000000     C
    C   1.0     0.587609     0.726330     0.705518  Biso 1.000000     C
    C   1.0     0.190294     0.267091     0.735372  Biso 1.000000     C
    C   1.0     0.190304     0.767096     0.735371  Biso 1.000000     C
    C   1.0     0.690311     0.267090     0.735371  Biso 1.000000     C
    C   1.0     0.690320     0.767096     0.735371  Biso 1.000000     C
    C   1.0     0.230538     0.254821     0.793186  Biso 1.000000     C
    C   1.0     0.230547     0.754826     0.793186  Biso 1.000000     C
    C   1.0     0.730556     0.254819     0.793185  Biso 1.000000     C
    C   1.0     0.730565     0.754824     0.793185  Biso 1.000000     C
    C   1.0     0.455312     0.201469     0.611670  Biso 1.000000     C
    C   1.0     0.455320     0.701476     0.611668  Biso 1.000000     C
    C   1.0     0.955320     0.201469     0.611669  Biso 1.000000     C
    C   1.0     0.955328     0.701475     0.611669  Biso 1.000000     C
    C   1.0     0.513202     0.134538     0.588636  Biso 1.000000     C
    C   1.0     0.513204     0.634543     0.588635  Biso 1.000000     C
    C   1.0     0.000000     0.134539     0.588636  Biso 1.000000     C
    C   1.0     0.000000     0.634543     0.588636  Biso 1.000000     C
    C   1.0     0.168013     0.048414     0.323197  Biso 1.000000     C
    C   1.0     0.168017     0.548418     0.323196  Biso 1.000000     C
    C   1.0     0.668030     0.048415     0.323197  Biso 1.000000     C
    C   1.0     0.668033     0.548420     0.323196  Biso 1.000000     C
    C   1.0     0.067164     0.089787     0.294290  Biso 1.000000     C
    C   1.0     0.067168     0.589791     0.294290  Biso 1.000000     C
    C   1.0     0.567178     0.089786     0.294290  Biso 1.000000     C
    C   1.0     0.567183     0.589792     0.294290  Biso 1.000000     C
    C   1.0     0.028092     0.078159     0.236041  Biso 1.000000     C
    C   1.0     0.028102     0.578165     0.236040  Biso 1.000000     C
    C   1.0     0.528108     0.078159     0.236041  Biso 1.000000     C
    C   1.0     0.528117     0.578167     0.236040  Biso 1.000000     C
    C   1.0     0.087584     0.023670     0.205535  Biso 1.000000     C
    C   1.0     0.087586     0.523673     0.205534  Biso 1.000000     C
    C   1.0     0.587601     0.023670     0.205535  Biso 1.000000     C
    C   1.0     0.587600     0.523674     0.205535  Biso 1.000000     C
    C   1.0     0.190302     0.482907     0.235387  Biso 1.000000     C
    C   1.0     0.190313     0.982906     0.235388  Biso 1.000000     C
    C   1.0     0.690322     0.482909     0.235387  Biso 1.000000     C
    C   1.0     0.690334     0.982908     0.235387  Biso 1.000000     C
    C   1.0     0.230555    -0.004823     0.293200  Biso 1.000000     C
    C   1.0     0.230555     0.495178     0.293200  Biso 1.000000     C
    C   1.0     0.730575    -0.004822     0.293199  Biso 1.000000     C
    C   1.0     0.730574     0.495181     0.293199  Biso 1.000000     C
    C   1.0     0.455295     0.048523     0.111684  Biso 1.000000     C
    C   1.0     0.455294     0.548528     0.111686  Biso 1.000000     C
    C   1.0     0.955306     0.048522     0.111683  Biso 1.000000     C
    C   1.0     0.955306     0.548528     0.111686  Biso 1.000000     C
    C   1.0     0.513167     0.115457     0.088647  Biso 1.000000     C
    C   1.0     0.513168     0.615461     0.088648  Biso 1.000000     C
    C   1.0     0.000000     0.115457     0.088647  Biso 1.000000     C
    C   1.0     0.000000     0.615462     0.088648  Biso 1.000000     C
    C   1.0     0.332069     0.298413     0.176797  Biso 1.000000     C
    C   1.0     0.332076     0.798418     0.176797  Biso 1.000000     C
    C   1.0     0.832087     0.298412     0.176797  Biso 1.000000     C
    C   1.0     0.832095     0.798417     0.176796  Biso 1.000000     C
    C   1.0     0.432913     0.339788     0.205699  Biso 1.000000     C
    C   1.0     0.432922     0.839792     0.205698  Biso 1.000000     C
    C   1.0     0.932929     0.339787     0.205700  Biso 1.000000     C
    C   1.0     0.932937     0.839792     0.205699  Biso 1.000000     C
    C   1.0     0.471982     0.328166     0.263950  Biso 1.000000     C
    C   1.0     0.471993     0.828171     0.263949  Biso 1.000000     C
    C   1.0     0.971998     0.328164     0.263950  Biso 1.000000     C
    C   1.0     0.972009     0.828170     0.263949  Biso 1.000000     C
    C   1.0     0.412499     0.273677     0.294461  Biso 1.000000     C
    C   1.0     0.412509     0.773683     0.294461  Biso 1.000000     C
    C   1.0     0.912511     0.273677     0.294463  Biso 1.000000     C
    C   1.0     0.912525     0.773682     0.294462  Biso 1.000000     C
    C   1.0     0.309781     0.232910     0.264613  Biso 1.000000     C
    C   1.0     0.309789     0.732917     0.264614  Biso 1.000000     C
    C   1.0     0.809800     0.232908     0.264613  Biso 1.000000     C
    C   1.0     0.809811     0.732913     0.264614  Biso 1.000000     C
    C   1.0     0.269527     0.245179     0.206800  Biso 1.000000     C
    C   1.0     0.269532     0.745185     0.206801  Biso 1.000000     C
    C   1.0     0.769545     0.245177     0.206799  Biso 1.000000     C
    C   1.0     0.769553     0.745183     0.206800  Biso 1.000000     C
    C   1.0     0.044821     0.298526     0.388305  Biso 1.000000     C
    C   1.0     0.044845     0.798530     0.388302  Biso 1.000000     C
    C   1.0     0.544837     0.298527     0.388303  Biso 1.000000     C
    C   1.0     0.544858     0.798531     0.388301  Biso 1.000000     C
    C   1.0    -0.013018     0.365466     0.411344  Biso 1.000000     C
    C   1.0    -0.012990     0.865469     0.411344  Biso 1.000000     C
    C   1.0     0.486994     0.365465     0.411344  Biso 1.000000     C
    C   1.0     0.487021     0.865469     0.411343  Biso 1.000000     C
    N   1.0     0.452148     0.492214     0.851077  Biso 1.000000     N
    N   1.0     0.452163     0.992217     0.851077  Biso 1.000000     N
    N   1.0     0.952172     0.492214     0.851075  Biso 1.000000     N
    N   1.0     0.952176     0.992218     0.851077  Biso 1.000000     N
    N   1.0     0.047911     0.242215     0.648895  Biso 1.000000     N
    N   1.0     0.047923     0.742220     0.648894  Biso 1.000000     N
    N   1.0     0.547932     0.242214     0.648894  Biso 1.000000     N
    N   1.0     0.547944     0.742219     0.648893  Biso 1.000000     N
    N   1.0     0.047909     0.007782     0.148912  Biso 1.000000     N
    N   1.0     0.047912     0.507785     0.148911  Biso 1.000000     N
    N   1.0     0.547925     0.007782     0.148912  Biso 1.000000     N
    N   1.0     0.547924     0.507785     0.148912  Biso 1.000000     N
    N   1.0     0.452180     0.257792     0.351085  Biso 1.000000     N
    N   1.0     0.452194     0.757797     0.351085  Biso 1.000000     N
    N   1.0     0.952187     0.257793     0.351087  Biso 1.000000     N
    N   1.0     0.952208     0.757797     0.351086  Biso 1.000000     N
    O   1.0     0.415577     0.411400     0.557420  Biso 1.000000     O
    O   1.0     0.415598     0.911401     0.557420  Biso 1.000000     O
    O   1.0     0.915590     0.411400     0.557420  Biso 1.000000     O
    O   1.0     0.915610     0.911401     0.557419  Biso 1.000000     O
    O   1.0     0.159748     0.363520     0.592591  Biso 1.000000     O
    O   1.0     0.159768     0.863521     0.592590  Biso 1.000000     O
    O   1.0     0.659760     0.363519     0.592590  Biso 1.000000     O
    O   1.0     0.659782     0.863522     0.592591  Biso 1.000000     O
    O   1.0     0.187270     0.503199     0.566881  Biso 1.000000     O
    O   1.0     0.187290     0.000000     0.566882  Biso 1.000000     O
    O   1.0     0.687283     0.503198     0.566881  Biso 1.000000     O
    O   1.0     0.687303     0.000000     0.566882  Biso 1.000000     O
    O   1.0     0.356629     0.371598     0.895142  Biso 1.000000     O
    O   1.0     0.356638     0.871605     0.895143  Biso 1.000000     O
    O   1.0     0.856640     0.371601     0.895143  Biso 1.000000     O
    O   1.0     0.856652     0.871604     0.895143  Biso 1.000000     O
    O   1.0     0.064000     0.347204     0.942686  Biso 1.000000     O
    O   1.0     0.064014     0.847204     0.942681  Biso 1.000000     O
    O   1.0     0.564013     0.347204     0.942686  Biso 1.000000     O
    O   1.0     0.564025     0.847205     0.942683  Biso 1.000000     O
    O   1.0     0.084529     0.161399     0.942555  Biso 1.000000     O
    O   1.0     0.084537     0.661403     0.942554  Biso 1.000000     O
    O   1.0     0.584541     0.161400     0.942555  Biso 1.000000     O
    O   1.0     0.584550     0.661403     0.942554  Biso 1.000000     O
    O   1.0     0.340361     0.113515     0.907383  Biso 1.000000     O
    O   1.0     0.340368     0.613519     0.907382  Biso 1.000000     O
    O   1.0     0.840373     0.113516     0.907383  Biso 1.000000     O
    O   1.0     0.840381     0.613519     0.907382  Biso 1.000000     O
    O   1.0     0.312837     0.253190     0.933095  Biso 1.000000     O
    O   1.0     0.312846     0.753195     0.933095  Biso 1.000000     O
    O   1.0     0.812850     0.253191     0.933095  Biso 1.000000     O
    O   1.0     0.812859     0.753195     0.933094  Biso 1.000000     O
    O   1.0     0.143496     0.121611     0.604834  Biso 1.000000     O
    O   1.0     0.143497     0.621614     0.604833  Biso 1.000000     O
    O   1.0     0.643507     0.121609     0.604834  Biso 1.000000     O
    O   1.0     0.643508     0.621612     0.604834  Biso 1.000000     O
    O   1.0     0.436144     0.097201     0.557287  Biso 1.000000     O
    O   1.0     0.436141     0.597205     0.557289  Biso 1.000000     O
    O   1.0     0.936157     0.097201     0.557287  Biso 1.000000     O
    O   1.0     0.936154     0.597206     0.557288  Biso 1.000000     O
    O   1.0     0.084564     0.088594     0.442564  Biso 1.000000     O
    O   1.0     0.084562     0.588597     0.442563  Biso 1.000000     O
    O   1.0     0.584576     0.088594     0.442564  Biso 1.000000     O
    O   1.0     0.584574     0.588597     0.442563  Biso 1.000000     O
    O   1.0     0.340391     0.136482     0.407389  Biso 1.000000     O
    O   1.0     0.340389     0.636485     0.407389  Biso 1.000000     O
    O   1.0     0.840403     0.136482     0.407390  Biso 1.000000     O
    O   1.0     0.840403     0.636486     0.407390  Biso 1.000000     O
    O   1.0     0.312886    -0.003192     0.433108  Biso 1.000000     O
    O   1.0     0.312882     0.496809     0.433107  Biso 1.000000     O
    O   1.0     0.812899    -0.003192     0.433109  Biso 1.000000     O
    O   1.0     0.812895     0.496810     0.433107  Biso 1.000000     O
    O   1.0     0.143454     0.128390     0.104844  Biso 1.000000     O
    O   1.0     0.143458     0.628395     0.104844  Biso 1.000000     O
    O   1.0     0.643468     0.128390     0.104844  Biso 1.000000     O
    O   1.0     0.643472     0.628393     0.104843  Biso 1.000000     O
    O   1.0     0.436092     0.152794     0.057301  Biso 1.000000     O
    O   1.0     0.436098     0.652795     0.057296  Biso 1.000000     O
    O   1.0     0.936102     0.152796     0.057302  Biso 1.000000     O
    O   1.0     0.936110     0.652795     0.057296  Biso 1.000000     O
    O   1.0     0.415531     0.338596     0.057428  Biso 1.000000     O
    O   1.0     0.415538     0.838600     0.057428  Biso 1.000000     O
    O   1.0     0.915543     0.338597     0.057427  Biso 1.000000     O
    O   1.0     0.915550     0.838600     0.057427  Biso 1.000000     O
    O   1.0     0.159697     0.386479     0.092600  Biso 1.000000     O
    O   1.0     0.159703     0.886482     0.092599  Biso 1.000000     O
    O   1.0     0.659711     0.386478     0.092600  Biso 1.000000     O
    O   1.0     0.659717     0.886481     0.092600  Biso 1.000000     O
    O   1.0     0.187227     0.246802     0.066891  Biso 1.000000     O
    O   1.0     0.187233     0.746806     0.066891  Biso 1.000000     O
    O   1.0     0.687240     0.246802     0.066891  Biso 1.000000     O
    O   1.0     0.687246     0.746805     0.066891  Biso 1.000000     O
    O   1.0     0.356693     0.378408     0.395153  Biso 1.000000     O
    O   1.0     0.356721     0.878414     0.395153  Biso 1.000000     O
    O   1.0     0.856707     0.378411     0.395152  Biso 1.000000     O
    O   1.0     0.856735     0.878415     0.395153  Biso 1.000000     O
    O   1.0     0.064082     0.402793     0.442687  Biso 1.000000     O
    O   1.0     0.064114     0.902795     0.442686  Biso 1.000000     O
    O   1.0     0.564093     0.402792     0.442687  Biso 1.000000     O
    O   1.0     0.564123     0.902794     0.442687  Biso 1.000000     O
   As   1.0     0.277603     0.434596     0.596510  Biso 1.000000    As
   As   1.0     0.277623     0.934598     0.596511  Biso 1.000000    As
   As   1.0     0.777615     0.434595     0.596510  Biso 1.000000    As
   As   1.0     0.777637     0.934598     0.596511  Biso 1.000000    As
   As   1.0     0.222502     0.184593     0.903463  Biso 1.000000    As
   As   1.0     0.222510     0.684598     0.903463  Biso 1.000000    As
   As   1.0     0.722514     0.184594     0.903463  Biso 1.000000    As
   As   1.0     0.722522     0.684598     0.903462  Biso 1.000000    As
   As   1.0     0.222538     0.065403     0.403472  Biso 1.000000    As
   As   1.0     0.222536     0.565406     0.403472  Biso 1.000000    As
   As   1.0     0.722552     0.065403     0.403473  Biso 1.000000    As
   As   1.0     0.722551     0.565407     0.403472  Biso 1.000000    As
   As   1.0     0.277558     0.315402     0.096520  Biso 1.000000    As
   As   1.0     0.277564     0.815405     0.096520  Biso 1.000000    As
   As   1.0     0.777573     0.315401     0.096520  Biso 1.000000    As
   As   1.0     0.777579     0.815404     0.096520  Biso 1.000000    As
   Cd   1.0     0.000089    -0.000008     0.499991  Biso 1.000000    Cd
   Cd   1.0     0.000081     0.499996     0.499991  Biso 1.000000    Cd
   Cd   1.0     0.500100    -0.000008     0.499991  Biso 1.000000    Cd
   Cd   1.0     0.500093     0.499996     0.499991  Biso 1.000000    Cd
   Cd   1.0     0.000036     0.250003    -0.000000  Biso 1.000000    Cd
   Cd   1.0     0.000044     0.750006    -0.000001  Biso 1.000000    Cd
   Cd   1.0     0.500049     0.250003     0.000000  Biso 1.000000    Cd
   Cd   1.0     0.500057     0.750007    -0.000001  Biso 1.000000    Cd
