#======================================================================

# CRYSTAL DATA

#----------------------------------------------------------------------

data_VESTA_phase_1


_pd_phase_name                         MOF
_cell_length_a                         15.29500
_cell_length_b                         19.77900
_cell_length_c                         15.02000
_cell_angle_alpha                      109.18500
_cell_angle_beta                       100.98400
_cell_angle_gamma                      90.01100
_symmetry_space_group_name_H-M         "P 1"
_symmetry_Int_Tables_number            1

loop_
_symmetry_equiv_pos_as_xyz
   "x, y, z"

loop_
   _atom_site_label
   _atom_site_occupancy
   _atom_site_fract_x
   _atom_site_fract_y
   _atom_site_fract_z
   _atom_site_adp_type
   _atom_site_B_iso_or_equiv
   _atom_site_type_symbol
    H   1.0     0.413903     0.222126     0.667400  Biso 1.000000     H
    H   1.0     0.413897     0.722114     0.667398  Biso 1.000000     H
    H   1.0     0.913894     0.222125     0.667399  Biso 1.000000     H
    H   1.0     0.913887     0.722114     0.667397  Biso 1.000000     H
    H   1.0     0.375317     0.283597     0.825844  Biso 1.000000     H
    H   1.0     0.375311     0.783586     0.825842  Biso 1.000000     H
    H   1.0     0.875305     0.283597     0.825841  Biso 1.000000     H
    H   1.0     0.875301     0.783585     0.825840  Biso 1.000000     H
    H   1.0     0.440148     0.485835     0.792639  Biso 1.000000     H
    H   1.0     0.440149     0.985823     0.792640  Biso 1.000000     H
    H   1.0     0.940138     0.485834     0.792637  Biso 1.000000     H
    H   1.0     0.940141     0.985823     0.792639  Biso 1.000000     H
    H   1.0     0.476642     0.414816     0.633549  Biso 1.000000     H
    H   1.0     0.476642     0.914804     0.633550  Biso 1.000000     H
    H   1.0     0.976634     0.414816     0.633549  Biso 1.000000     H
    H   1.0     0.976634     0.914804     0.633549  Biso 1.000000     H
    H   1.0     0.335897     0.388350     0.332599  Biso 1.000000     H
    H   1.0     0.335896     0.888337     0.332598  Biso 1.000000     H
    H   1.0     0.835889     0.388350     0.332598  Biso 1.000000     H
    H   1.0     0.835888     0.888338     0.332598  Biso 1.000000     H
    H   1.0     0.374403     0.370569     0.174077  Biso 1.000000     H
    H   1.0     0.374402     0.870556     0.174076  Biso 1.000000     H
    H   1.0     0.874395     0.370569     0.174076  Biso 1.000000     H
    H   1.0     0.874395     0.870557     0.174076  Biso 1.000000     H
    H   1.0     0.310085     0.089453     0.207161  Biso 1.000000     H
    H   1.0     0.310081     0.589440     0.207160  Biso 1.000000     H
    H   1.0     0.810077     0.089453     0.207161  Biso 1.000000     H
    H   1.0     0.810073     0.589441     0.207160  Biso 1.000000     H
    H   1.0     0.273677     0.098023     0.366357  Biso 1.000000     H
    H   1.0     0.273673     0.598010     0.366356  Biso 1.000000     H
    H   1.0     0.773668     0.098023     0.366355  Biso 1.000000     H
    H   1.0     0.773666     0.598011     0.366356  Biso 1.000000     H
    H   1.0     0.086134     0.277901     0.332645  Biso 1.000000     H
    H   1.0     0.086134     0.777887     0.332646  Biso 1.000000     H
    H   1.0     0.586125     0.277901     0.332644  Biso 1.000000     H
    H   1.0     0.586122     0.777888     0.332644  Biso 1.000000     H
    H   1.0     0.124727     0.216429     0.174205  Biso 1.000000     H
    H   1.0     0.124726     0.716415     0.174206  Biso 1.000000     H
    H   1.0     0.624717     0.216429     0.174204  Biso 1.000000     H
    H   1.0     0.624713     0.716415     0.174203  Biso 1.000000     H
    H   1.0     0.059901     0.014191     0.207414  Biso 1.000000     H
    H   1.0     0.059895     0.514178     0.207412  Biso 1.000000     H
    H   1.0     0.559893     0.014191     0.207413  Biso 1.000000     H
    H   1.0     0.559889     0.514178     0.207413  Biso 1.000000     H
    H   1.0     0.023401     0.085210     0.366500  Biso 1.000000     H
    H   1.0     0.023397     0.585197     0.366499  Biso 1.000000     H
    H   1.0     0.523393     0.085210     0.366500  Biso 1.000000     H
    H   1.0     0.523390     0.585197     0.366500  Biso 1.000000     H
    H   1.0     0.164141     0.111672     0.667450  Biso 1.000000     H
    H   1.0     0.164136     0.611660     0.667450  Biso 1.000000     H
    H   1.0     0.664134     0.111673     0.667451  Biso 1.000000     H
    H   1.0     0.664129     0.611660     0.667450  Biso 1.000000     H
    H   1.0     0.125641     0.129454     0.825975  Biso 1.000000     H
    H   1.0     0.125634     0.629440     0.825974  Biso 1.000000     H
    H   1.0     0.625634     0.129455     0.825976  Biso 1.000000     H
    H   1.0     0.625628     0.629441     0.825974  Biso 1.000000     H
    H   1.0     0.189964     0.410570     0.792890  Biso 1.000000     H
    H   1.0     0.189963     0.910558     0.792890  Biso 1.000000     H
    H   1.0     0.689955     0.410571     0.792889  Biso 1.000000     H
    H   1.0     0.689954     0.910559     0.792889  Biso 1.000000     H
    H   1.0     0.226366     0.402001     0.633692  Biso 1.000000     H
    H   1.0     0.226364     0.901988     0.633692  Biso 1.000000     H
    H   1.0     0.726357     0.402001     0.633691  Biso 1.000000     H
    H   1.0     0.726355     0.901989     0.633691  Biso 1.000000     H
    C   1.0     0.419850     0.280462     0.697960  Biso 1.000000     C
    C   1.0     0.419847     0.780450     0.697959  Biso 1.000000     C
    C   1.0     0.919842     0.280461     0.697959  Biso 1.000000     C
    C   1.0     0.919841     0.780450     0.697959  Biso 1.000000     C
    C   1.0     0.398656     0.315442     0.786909  Biso 1.000000     C
    C   1.0     0.398651     0.815431     0.786907  Biso 1.000000     C
    C   1.0     0.898644     0.315442     0.786906  Biso 1.000000     C
    C   1.0     0.898638     0.815430     0.786904  Biso 1.000000     C
    C   1.0     0.407081     0.390696     0.824430  Biso 1.000000     C
    C   1.0     0.407079     0.890684     0.824430  Biso 1.000000     C
    C   1.0     0.907070     0.390695     0.824428  Biso 1.000000     C
    C   1.0     0.907073     0.890684     0.824430  Biso 1.000000     C
    C   1.0     0.434111     0.427456     0.767520  Biso 1.000000     C
    C   1.0     0.434110     0.927444     0.767520  Biso 1.000000     C
    C   1.0     0.934100     0.427455     0.767519  Biso 1.000000     C
    C   1.0     0.934097     0.927444     0.767518  Biso 1.000000     C
    C   1.0     0.454425     0.388286     0.679314  Biso 1.000000     C
    C   1.0     0.454425     0.888274     0.679315  Biso 1.000000     C
    C   1.0     0.954418     0.388285     0.679314  Biso 1.000000     C
    C   1.0     0.954420     0.888273     0.679316  Biso 1.000000     C
    C   1.0     0.389254     0.429353     0.919763  Biso 1.000000     C
    C   1.0     0.389252     0.929341     0.919762  Biso 1.000000     C
    C   1.0     0.889243     0.429353     0.919761  Biso 1.000000     C
    C   1.0     0.889243     0.929341     0.919761  Biso 1.000000     C
    C   1.0     0.305489     0.325036     0.445379  Biso 1.000000     C
    C   1.0     0.305488     0.825024     0.445379  Biso 1.000000     C
    C   1.0     0.805482     0.325036     0.445380  Biso 1.000000     C
    C   1.0     0.805479     0.825024     0.445379  Biso 1.000000     C
    C   1.0     0.330056     0.431414     0.302008  Biso 1.000000     C
    C   1.0     0.330054     0.931401     0.302007  Biso 1.000000     C
    C   1.0     0.830044     0.431413     0.302005  Biso 1.000000     C
    C   1.0     0.830049     0.931403     0.302008  Biso 1.000000     C
    C   1.0     0.351197     0.421899     0.213009  Biso 1.000000     C
    C   1.0     0.351196     0.921887     0.213009  Biso 1.000000     C
    C   1.0     0.851192     0.421900     0.213010  Biso 1.000000     C
    C   1.0     0.851186     0.921886     0.213007  Biso 1.000000     C
    C   1.0     0.342908     0.478397     0.175441  Biso 1.000000     C
    C   1.0     0.342907     0.978384     0.175440  Biso 1.000000     C
    C   1.0     0.842895     0.478396     0.175438  Biso 1.000000     C
    C   1.0     0.842901     0.978385     0.175441  Biso 1.000000     C
    C   1.0     0.316028     0.043637     0.232332  Biso 1.000000     C
    C   1.0     0.316023     0.543624     0.232331  Biso 1.000000     C
    C   1.0     0.816017     0.043637     0.232330  Biso 1.000000     C
    C   1.0     0.816019     0.543626     0.232333  Biso 1.000000     C
    C   1.0     0.295768     0.048594     0.320594  Biso 1.000000     C
    C   1.0     0.295765     0.548581     0.320594  Biso 1.000000     C
    C   1.0     0.795762     0.048595     0.320595  Biso 1.000000     C
    C   1.0     0.795753     0.548581     0.320591  Biso 1.000000     C
    C   1.0     0.360750     0.469407     0.080095  Biso 1.000000     C
    C   1.0     0.360749     0.969395     0.080095  Biso 1.000000     C
    C   1.0     0.860741     0.469407     0.080094  Biso 1.000000     C
    C   1.0     0.860741     0.969395     0.080095  Biso 1.000000     C
    C   1.0     0.444455     0.102387     0.554857  Biso 1.000000     C
    C   1.0     0.444452     0.602375     0.554857  Biso 1.000000     C
    C   1.0     0.944449     0.102387     0.554857  Biso 1.000000     C
    C   1.0     0.944444     0.602375     0.554856  Biso 1.000000     C
    C   1.0     0.080192     0.219564     0.302089  Biso 1.000000     C
    C   1.0     0.080188     0.719551     0.302087  Biso 1.000000     C
    C   1.0     0.580182     0.219564     0.302087  Biso 1.000000     C
    C   1.0     0.580180     0.719551     0.302087  Biso 1.000000     C
    C   1.0     0.101386     0.184584     0.213140  Biso 1.000000     C
    C   1.0     0.101388     0.684570     0.213141  Biso 1.000000     C
    C   1.0     0.601377     0.184584     0.213139  Biso 1.000000     C
    C   1.0     0.601373     0.684571     0.213138  Biso 1.000000     C
    C   1.0     0.092968     0.109330     0.175622  Biso 1.000000     C
    C   1.0     0.092962     0.609317     0.175620  Biso 1.000000     C
    C   1.0     0.592959     0.109330     0.175621  Biso 1.000000     C
    C   1.0     0.592955     0.609317     0.175621  Biso 1.000000     C
    C   1.0     0.065934     0.072570     0.232530  Biso 1.000000     C
    C   1.0     0.065933     0.572557     0.232530  Biso 1.000000     C
    C   1.0     0.565926     0.072570     0.232530  Biso 1.000000     C
    C   1.0     0.565922     0.572557     0.232529  Biso 1.000000     C
    C   1.0     0.045620     0.111740     0.320736  Biso 1.000000     C
    C   1.0     0.045613     0.611728     0.320734  Biso 1.000000     C
    C   1.0     0.545611     0.111740     0.320735  Biso 1.000000     C
    C   1.0     0.545608     0.611727     0.320735  Biso 1.000000     C
    C   1.0     0.110794     0.070672     0.080289  Biso 1.000000     C
    C   1.0     0.110791     0.570658     0.080289  Biso 1.000000     C
    C   1.0     0.610785     0.070672     0.080289  Biso 1.000000     C
    C   1.0     0.610781     0.570659     0.080288  Biso 1.000000     C
    C   1.0     0.194550     0.174986     0.554669  Biso 1.000000     C
    C   1.0     0.194546     0.674974     0.554669  Biso 1.000000     C
    C   1.0     0.694541     0.174986     0.554669  Biso 1.000000     C
    C   1.0     0.694538     0.674974     0.554669  Biso 1.000000     C
    C   1.0     0.169992     0.068611     0.698046  Biso 1.000000     C
    C   1.0     0.169985     0.568598     0.698044  Biso 1.000000     C
    C   1.0     0.669986     0.068612     0.698047  Biso 1.000000     C
    C   1.0     0.669979     0.568599     0.698045  Biso 1.000000     C
    C   1.0     0.148841     0.078122     0.787039  Biso 1.000000     C
    C   1.0     0.148837     0.578110     0.787039  Biso 1.000000     C
    C   1.0     0.648832     0.078123     0.787038  Biso 1.000000     C
    C   1.0     0.648829     0.578110     0.787038  Biso 1.000000     C
    C   1.0     0.157145     0.021628     0.824614  Biso 1.000000     C
    C   1.0     0.157139     0.521615     0.824612  Biso 1.000000     C
    C   1.0     0.657139     0.021629     0.824614  Biso 1.000000     C
    C   1.0     0.657132     0.521616     0.824613  Biso 1.000000     C
    C   1.0     0.184014     0.456385     0.767716  Biso 1.000000     C
    C   1.0     0.184012     0.956372     0.767716  Biso 1.000000     C
    C   1.0     0.684005     0.456385     0.767715  Biso 1.000000     C
    C   1.0     0.684002     0.956373     0.767715  Biso 1.000000     C
    C   1.0     0.204281     0.451431     0.679458  Biso 1.000000     C
    C   1.0     0.204281     0.951419     0.679459  Biso 1.000000     C
    C   1.0     0.704273     0.451431     0.679458  Biso 1.000000     C
    C   1.0     0.704274     0.951420     0.679459  Biso 1.000000     C
    C   1.0     0.139298     0.030616     0.919957  Biso 1.000000     C
    C   1.0     0.139293     0.530603     0.919956  Biso 1.000000     C
    C   1.0     0.639290     0.030616     0.919956  Biso 1.000000     C
    C   1.0     0.639286     0.530604     0.919956  Biso 1.000000     C
    C   1.0     0.055584     0.397636     0.445189  Biso 1.000000     C
    C   1.0     0.055582     0.897624     0.445188  Biso 1.000000     C
    C   1.0     0.555575     0.397636     0.445188  Biso 1.000000     C
    C   1.0     0.555575     0.897624     0.445189  Biso 1.000000     C
    N   1.0     0.448898     0.315883     0.645293  Biso 1.000000     N
    N   1.0     0.448895     0.815871     0.645293  Biso 1.000000     N
    N   1.0     0.948889     0.315882     0.645293  Biso 1.000000     N
    N   1.0     0.948885     0.815870     0.645291  Biso 1.000000     N
    N   1.0     0.383343    -0.000340     0.954622  Biso 1.000000     N
    N   1.0     0.383341     0.499647     0.954622  Biso 1.000000     N
    N   1.0     0.883338    -0.000340     0.954623  Biso 1.000000     N
    N   1.0     0.883339     0.499648     0.954624  Biso 1.000000     N
    N   1.0     0.284745     0.382821     0.487324  Biso 1.000000     N
    N   1.0     0.284743     0.882808     0.487324  Biso 1.000000     N
    N   1.0     0.784737     0.382821     0.487324  Biso 1.000000     N
    N   1.0     0.784735     0.882809     0.487324  Biso 1.000000     N
    N   1.0     0.301183     0.493195     0.354680  Biso 1.000000     N
    N   1.0     0.301183     0.993183     0.354680  Biso 1.000000     N
    N   1.0     0.801177     0.493196     0.354680  Biso 1.000000     N
    N   1.0     0.801174     0.993183     0.354679  Biso 1.000000     N
    N   1.0     0.366848     0.022303     0.045252  Biso 1.000000     N
    N   1.0     0.366843     0.522290     0.045251  Biso 1.000000     N
    N   1.0     0.866845     0.022304     0.045253  Biso 1.000000     N
    N   1.0     0.866848     0.522291     0.045255  Biso 1.000000     N
    N   1.0     0.465201     0.139258     0.512934  Biso 1.000000     N
    N   1.0     0.465199     0.639246     0.512935  Biso 1.000000     N
    N   1.0     0.965195     0.139258     0.512934  Biso 1.000000     N
    N   1.0     0.965190     0.639245     0.512934  Biso 1.000000     N
    N   1.0     0.051142     0.184144     0.354753  Biso 1.000000     N
    N   1.0     0.051140     0.684131     0.354754  Biso 1.000000     N
    N   1.0     0.551133     0.184143     0.354753  Biso 1.000000     N
    N   1.0     0.551130     0.684131     0.354753  Biso 1.000000     N
    N   1.0     0.116701     0.500364     0.045429  Biso 1.000000     N
    N   1.0     0.116699     0.000000     0.045429  Biso 1.000000     N
    N   1.0     0.616699     0.500365     0.045431  Biso 1.000000     N
    N   1.0     0.616696     0.000000     0.045431  Biso 1.000000     N
    N   1.0     0.215294     0.117201     0.512727  Biso 1.000000     N
    N   1.0     0.215291     0.617189     0.512727  Biso 1.000000     N
    N   1.0     0.715286     0.117201     0.512726  Biso 1.000000     N
    N   1.0     0.715282     0.617189     0.512726  Biso 1.000000     N
    N   1.0     0.198855     0.006827     0.645368  Biso 1.000000     N
    N   1.0     0.198852     0.506815     0.645368  Biso 1.000000     N
    N   1.0     0.698847     0.006828     0.645367  Biso 1.000000     N
    N   1.0     0.698843     0.506815     0.645367  Biso 1.000000     N
    N   1.0     0.133192     0.477719     0.954798  Biso 1.000000     N
    N   1.0     0.133192     0.977708     0.954798  Biso 1.000000     N
    N   1.0     0.633192     0.477721     0.954801  Biso 1.000000     N
    N   1.0     0.633187     0.977709     0.954799  Biso 1.000000     N
    N   1.0     0.034837     0.360766     0.487112  Biso 1.000000     N
    N   1.0     0.034835     0.860753     0.487111  Biso 1.000000     N
    N   1.0     0.534828     0.360766     0.487111  Biso 1.000000     N
    N   1.0     0.534828     0.860754     0.487111  Biso 1.000000     N
    S   1.0     0.333481     0.245213     0.386747  Biso 1.000000     S
    S   1.0     0.333479     0.745201     0.386747  Biso 1.000000     S
    S   1.0     0.833473     0.245213     0.386749  Biso 1.000000     S
    S   1.0     0.833471     0.745201     0.386748  Biso 1.000000     S
    S   1.0     0.416466     0.051804     0.613467  Biso 1.000000     S
    S   1.0     0.416462     0.551792     0.613467  Biso 1.000000     S
    S   1.0     0.916458     0.051804     0.613467  Biso 1.000000     S
    S   1.0     0.916454     0.551791     0.613466  Biso 1.000000     S
    S   1.0     0.166560     0.254810     0.613298  Biso 1.000000     S
    S   1.0     0.166556     0.754798     0.613298  Biso 1.000000     S
    S   1.0     0.666550     0.254810     0.613298  Biso 1.000000     S
    S   1.0     0.666547     0.754798     0.613299  Biso 1.000000     S
    S   1.0     0.083575     0.448219     0.386579  Biso 1.000000     S
    S   1.0     0.083574     0.948206     0.386578  Biso 1.000000     S
    S   1.0     0.583567     0.448218     0.386578  Biso 1.000000     S
    S   1.0     0.583566     0.948207     0.386580  Biso 1.000000     S
    S   1.0     0.374907     0.385819    -0.000086  Biso 1.000000     S
    S   1.0     0.374904     0.885807    -0.000087  Biso 1.000000     S
    S   1.0     0.874883     0.385817    -0.000092  Biso 1.000000     S
    S   1.0     0.874891     0.885806    -0.000089  Biso 1.000000     S
    S   1.0     0.125148     0.114209     0.000127  Biso 1.000000     S
    S   1.0     0.125143     0.614195     0.000126  Biso 1.000000     S
    S   1.0     0.625135     0.114208     0.000124  Biso 1.000000     S
    S   1.0     0.625125     0.614195     0.000122  Biso 1.000000     S
   Cd   1.0     0.000024     0.250012     0.500024  Biso 1.000000    Cd
   Cd   1.0     0.000021     0.750000     0.500023  Biso 1.000000    Cd
   Cd   1.0     0.500015     0.250012     0.500023  Biso 1.000000    Cd
   Cd   1.0     0.500013     0.750000     0.500023  Biso 1.000000    Cd
   Cd   1.0     0.250022     0.000017     0.500024  Biso 1.000000    Cd
   Cd   1.0     0.250019     0.500005     0.500024  Biso 1.000000    Cd
   Cd   1.0     0.750015     0.000018     0.500024  Biso 1.000000    Cd
   Cd   1.0     0.750010     0.500005     0.500023  Biso 1.000000    Cd
