#======================================================================

# CRYSTAL DATA

#----------------------------------------------------------------------

data_VESTA_phase_1


_pd_phase_name                         MOF
_cell_length_a                         13.92600
_cell_length_b                         15.05400
_cell_length_c                         15.04100
_cell_angle_alpha                      117.17500
_cell_angle_beta                       96.39800
_cell_angle_gamma                      96.64000
_symmetry_space_group_name_H-M         "P 1"
_symmetry_Int_Tables_number            1

loop_
_symmetry_equiv_pos_as_xyz
   "x, y, z"

loop_
   _atom_site_label
   _atom_site_occupancy
   _atom_site_fract_x
   _atom_site_fract_y
   _atom_site_fract_z
   _atom_site_adp_type
   _atom_site_B_iso_or_equiv
   _atom_site_type_symbol
    H   1.0     0.378097     0.641317     0.057533  Biso 1.000000     H
    H   1.0     0.000000     0.599153     0.458108  Biso 1.000000     H
    H   1.0     0.978868     0.656568     0.213135  Biso 1.000000     H
    H   1.0     0.830810     0.610714     0.474794  Biso 1.000000     H
    H   1.0     0.406102     0.663371     0.885169  Biso 1.000000     H
    H   1.0     0.034486     0.605990     0.804918  Biso 1.000000     H
    H   1.0     0.802054     0.670598     0.218712  Biso 1.000000     H
    H   1.0     0.398932     0.685726     0.708510  Biso 1.000000     H
    H   1.0     0.121792     0.941509     0.357529  Biso 1.000000     H
    H   1.0     0.493230     0.541962     0.400234  Biso 1.000000     H
    H   1.0     0.522351     0.787174     0.343351  Biso 1.000000     H
    H   1.0     0.668134     0.524891     0.388644  Biso 1.000000     H
    H   1.0     0.093792     0.114034     0.336315  Biso 1.000000     H
    H   1.0     0.465453     0.195840     0.393899  Biso 1.000000     H
    H   1.0     0.699170     0.781267     0.329387  Biso 1.000000     H
    H   1.0     0.100974     0.291094     0.314917  Biso 1.000000     H
    H   1.0     0.621922     0.358704     0.942469  Biso 1.000000     H
    H   1.0    -0.005780     0.400869     0.541898  Biso 1.000000     H
    H   1.0     0.021159     0.343451     0.786870  Biso 1.000000     H
    H   1.0     0.169215     0.389308     0.525210  Biso 1.000000     H
    H   1.0     0.593917     0.336654     0.114838  Biso 1.000000     H
    H   1.0     0.965534     0.394034     0.195084  Biso 1.000000     H
    H   1.0     0.197972     0.329420     0.781290  Biso 1.000000     H
    H   1.0     0.601090     0.314299     0.291498  Biso 1.000000     H
    H   1.0     0.878230     0.058510     0.642477  Biso 1.000000     H
    H   1.0     0.506796     0.458056     0.599768  Biso 1.000000     H
    H   1.0     0.477673     0.212841     0.656646  Biso 1.000000     H
    H   1.0     0.331893     0.475128     0.611359  Biso 1.000000     H
    H   1.0     0.906231     0.885988     0.663694  Biso 1.000000     H
    H   1.0     0.534569     0.804176     0.606103  Biso 1.000000     H
    H   1.0     0.300854     0.218749     0.670611  Biso 1.000000     H
    H   1.0     0.899050     0.708929     0.685094  Biso 1.000000     H
    C   1.0     0.225415     0.608588     0.065349  Biso 1.000000     C
    C   1.0     0.301519     0.627982     0.022516  Biso 1.000000     C
    C   1.0     0.957554     0.614749     0.406967  Biso 1.000000     C
    C   1.0     0.801849     0.643152     0.348633  Biso 1.000000     C
    C   1.0     0.942757     0.648206     0.270265  Biso 1.000000     C
    C   1.0     0.269360     0.631815     0.930810  Biso 1.000000     C
    C   1.0     0.172743     0.639527     0.762303  Biso 1.000000     C
    C   1.0     0.251168     0.670850     0.635074  Biso 1.000000     C
    C   1.0     0.232099     0.608759     0.164402  Biso 1.000000     C
    C   1.0     0.163707     0.615096     0.906714  Biso 1.000000     C
    C   1.0     0.860203     0.621077     0.415361  Biso 1.000000     C
    C   1.0     0.325985     0.651085     0.867964  Biso 1.000000     C
    C   1.0     0.320380     0.672810     0.708528  Biso 1.000000     C
    C   1.0     0.114557     0.618861     0.822770  Biso 1.000000     C
    C   1.0     0.844923     0.656455     0.274491  Biso 1.000000     C
    C   1.0     0.278433     0.655219     0.783207  Biso 1.000000     C
    C   1.0     0.263899     0.678585     0.542248  Biso 1.000000     C
    C   1.0     0.274476     0.934209     0.390094  Biso 1.000000     C
    C   1.0     0.198373     0.976828     0.370939  Biso 1.000000     C
    C   1.0     0.541955     0.593070     0.384768  Biso 1.000000     C
    C   1.0     0.698242     0.651186     0.356544  Biso 1.000000     C
    C   1.0     0.557967     0.729910     0.351617  Biso 1.000000     C
    C   1.0     0.230534     0.068806     0.367546  Biso 1.000000     C
    C   1.0     0.327187     0.238038     0.360662  Biso 1.000000     C
    C   1.0     0.248758     0.365294     0.330125  Biso 1.000000     C
    C   1.0     0.267835     0.835084     0.389630  Biso 1.000000     C
    C   1.0     0.336198     0.093348     0.384339  Biso 1.000000     C
    C   1.0     0.639251     0.584460     0.378417  Biso 1.000000     C
    C   1.0     0.173916     0.131569     0.348631  Biso 1.000000     C
    C   1.0     0.179539     0.291394     0.327783  Biso 1.000000     C
    C   1.0     0.385371     0.177660     0.380982  Biso 1.000000     C
    C   1.0     0.655806     0.725505     0.343402  Biso 1.000000     C
    C   1.0     0.221485     0.216692     0.344916  Biso 1.000000     C
    C   1.0     0.236072     0.458242     0.322858  Biso 1.000000     C
    C   1.0     0.774605     0.391429     0.934653  Biso 1.000000     C
    C   1.0     0.698500     0.372039     0.977487  Biso 1.000000     C
    C   1.0     0.042472     0.385272     0.593038  Biso 1.000000     C
    C   1.0     0.198177     0.356868     0.651370  Biso 1.000000     C
    C   1.0     0.057270     0.351814     0.729739  Biso 1.000000     C
    C   1.0     0.730659     0.368208     0.069195  Biso 1.000000     C
    C   1.0     0.827277     0.360497     0.237702  Biso 1.000000     C
    C   1.0     0.748855     0.329176     0.364932  Biso 1.000000     C
    C   1.0     0.767925     0.391254     0.835597  Biso 1.000000     C
    C   1.0     0.836311     0.384926     0.093289  Biso 1.000000     C
    C   1.0     0.139822     0.378944     0.584643  Biso 1.000000     C
    C   1.0     0.674035     0.348940     0.132042  Biso 1.000000     C
    C   1.0     0.679642     0.327216     0.291479  Biso 1.000000     C
    C   1.0     0.885462     0.381162     0.177234  Biso 1.000000     C
    C   1.0     0.155103     0.343564     0.725512  Biso 1.000000     C
    C   1.0     0.721587     0.344806     0.216799  Biso 1.000000     C
    C   1.0     0.736127     0.321442     0.457759  Biso 1.000000     C
    C   1.0     0.725546     0.065808     0.609909  Biso 1.000000     C
    C   1.0     0.801649     0.023190     0.629067  Biso 1.000000     C
    C   1.0     0.458070     0.406947     0.615234  Biso 1.000000     C
    C   1.0     0.301784     0.348832     0.643457  Biso 1.000000     C
    C   1.0     0.442057     0.270106     0.648381  Biso 1.000000     C
    C   1.0     0.769488     0.931213     0.632460  Biso 1.000000     C
    C   1.0     0.672836     0.761980     0.639343  Biso 1.000000     C
    C   1.0     0.751267     0.634727     0.669884  Biso 1.000000     C
    C   1.0     0.732189     0.164931     0.610368  Biso 1.000000     C
    C   1.0     0.663824     0.906670     0.615665  Biso 1.000000     C
    C   1.0     0.360775     0.415559     0.621585  Biso 1.000000     C
    C   1.0     0.826106     0.868452     0.651379  Biso 1.000000     C
    C   1.0     0.820485     0.708628     0.672227  Biso 1.000000     C
    C   1.0     0.614651     0.822356     0.619020  Biso 1.000000     C
    C   1.0     0.344218     0.274512     0.656597  Biso 1.000000     C
    C   1.0     0.778538     0.783328     0.655091  Biso 1.000000     C
    C   1.0     0.763953     0.541779     0.677153  Biso 1.000000     C
    N   1.0     0.998486     0.628192     0.335819  Biso 1.000000     N
    N   1.0     0.501620     0.664364     0.371446  Biso 1.000000     N
    N   1.0     0.001540     0.371828     0.664186  Biso 1.000000     N
    N   1.0     0.498405     0.335652     0.628553  Biso 1.000000     N
    O   1.0     0.349628     0.686924     0.522027  Biso 1.000000     O
    O   1.0     0.150290     0.585863     0.187582  Biso 1.000000     O
    O   1.0     0.183636     0.673011     0.487792  Biso 1.000000     O
    O   1.0     0.316922     0.634017     0.218994  Biso 1.000000     O
    O   1.0     0.150372     0.478317     0.314858  Biso 1.000000     O
    O   1.0     0.349683     0.812247     0.412397  Biso 1.000000     O
    O   1.0     0.316373     0.512936     0.328458  Biso 1.000000     O
    O   1.0     0.183070     0.780144     0.364302  Biso 1.000000     O
    O   1.0     0.650397     0.313097     0.477978  Biso 1.000000     O
    O   1.0     0.849737     0.414143     0.812417  Biso 1.000000     O
    O   1.0     0.816392     0.327025     0.512218  Biso 1.000000     O
    O   1.0     0.683104     0.365999     0.781003  Biso 1.000000     O
    O   1.0     0.849655     0.521709     0.685164  Biso 1.000000     O
    O   1.0     0.650341     0.187769     0.587603  Biso 1.000000     O
    O   1.0     0.683651     0.487082     0.671544  Biso 1.000000     O
    O   1.0     0.816955     0.219869     0.635691  Biso 1.000000     O
    S   1.0     0.130529     0.648280     0.653723  Biso 1.000000     S
    S   1.0     0.109562     0.592280     0.995041  Biso 1.000000     S
    S   1.0     0.369409     0.347023     0.352466  Biso 1.000000     S
    S   1.0     0.390329     0.005052     0.406697  Biso 1.000000     S
    S   1.0     0.869493     0.351746     0.346282  Biso 1.000000     S
    S   1.0     0.890457     0.407739     0.004961  Biso 1.000000     S
    S   1.0     0.630615     0.652994     0.647538  Biso 1.000000     S
    S   1.0     0.609694     0.994965     0.593305  Biso 1.000000     S
   Zn   1.0     0.145402     0.627392     0.335364  Biso 1.000000    Zn
   Zn   1.0     0.354645     0.665000     0.372323  Biso 1.000000    Zn
   Zn   1.0     0.854625     0.372625     0.664640  Biso 1.000000    Zn
   Zn   1.0     0.645381     0.335016     0.627677  Biso 1.000000    Zn
