#======================================================================

# CRYSTAL DATA

#----------------------------------------------------------------------

data_VESTA_phase_1


_pd_phase_name                         MOF
_cell_length_a                         17.55500
_cell_length_b                         17.54500
_cell_length_c                         15.91300
_cell_angle_alpha                      90.00000
_cell_angle_beta                       89.99900
_cell_angle_gamma                      92.60200
_symmetry_space_group_name_H-M         "P 1"
_symmetry_Int_Tables_number            1

loop_
_symmetry_equiv_pos_as_xyz
   "x, y, z"

loop_
   _atom_site_label
   _atom_site_occupancy
   _atom_site_fract_x
   _atom_site_fract_y
   _atom_site_fract_z
   _atom_site_adp_type
   _atom_site_B_iso_or_equiv
   _atom_site_type_symbol
    H   1.0     0.347527     0.378316     0.257611  Biso 1.000000     H
    H   1.0     0.347529     0.878307     0.257610  Biso 1.000000     H
    H   1.0     0.847537     0.378316     0.257611  Biso 1.000000     H
    H   1.0     0.847539     0.878307     0.257611  Biso 1.000000     H
    H   1.0     0.184904     0.034507     0.187923  Biso 1.000000     H
    H   1.0     0.184907     0.534498     0.187922  Biso 1.000000     H
    H   1.0     0.684914     0.034507     0.187922  Biso 1.000000     H
    H   1.0     0.684916     0.534498     0.187922  Biso 1.000000     H
    H   1.0     0.152471     0.121652     0.757575  Biso 1.000000     H
    H   1.0     0.152474     0.621643     0.757575  Biso 1.000000     H
    H   1.0     0.652481     0.121652     0.757575  Biso 1.000000     H
    H   1.0     0.652483     0.621643     0.757576  Biso 1.000000     H
    H   1.0     0.315104     0.465467     0.687893  Biso 1.000000     H
    H   1.0     0.315106     0.965457     0.687893  Biso 1.000000     H
    H   1.0     0.815113     0.465467     0.687892  Biso 1.000000     H
    H   1.0     0.815115     0.965458     0.687893  Biso 1.000000     H
    H   1.0     0.378680     0.347690     0.757529  Biso 1.000000     H
    H   1.0     0.378682     0.847680     0.757529  Biso 1.000000     H
    H   1.0     0.878690     0.347691     0.757529  Biso 1.000000     H
    H   1.0     0.878692     0.847681     0.757528  Biso 1.000000     H
    H   1.0     0.034456     0.184615     0.688023  Biso 1.000000     H
    H   1.0     0.034459     0.684605     0.688022  Biso 1.000000     H
    H   1.0     0.534466     0.184615     0.688023  Biso 1.000000     H
    H   1.0     0.534469     0.684605     0.688022  Biso 1.000000     H
    H   1.0     0.121330     0.152289     0.257565  Biso 1.000000     H
    H   1.0     0.121332     0.652279     0.257565  Biso 1.000000     H
    H   1.0     0.621339     0.152289     0.257565  Biso 1.000000     H
    H   1.0     0.621342     0.652279     0.257564  Biso 1.000000     H
    H   1.0     0.465549     0.315355     0.188048  Biso 1.000000     H
    H   1.0     0.465552     0.815346     0.188049  Biso 1.000000     H
    H   1.0     0.965559     0.315356     0.188049  Biso 1.000000     H
    H   1.0     0.965561     0.815346     0.188049  Biso 1.000000     H
    H   1.0     0.288974     0.211430     0.484354  Biso 1.000000     H
    H   1.0     0.288976     0.711420     0.484354  Biso 1.000000     H
    H   1.0     0.788983     0.211430     0.484354  Biso 1.000000     H
    H   1.0     0.788986     0.711420     0.484354  Biso 1.000000     H
    H   1.0     0.448308     0.051327     0.554363  Biso 1.000000     H
    H   1.0     0.448311     0.551317     0.554363  Biso 1.000000     H
    H   1.0     0.948319     0.051328     0.554364  Biso 1.000000     H
    H   1.0     0.948320     0.551317     0.554364  Biso 1.000000     H
    H   1.0     0.211040     0.288537     0.984322  Biso 1.000000     H
    H   1.0     0.211042     0.788527     0.984322  Biso 1.000000     H
    H   1.0     0.711050     0.288537     0.984322  Biso 1.000000     H
    H   1.0     0.711052     0.788527     0.984322  Biso 1.000000     H
    H   1.0     0.051700     0.448644     0.054356  Biso 1.000000     H
    H   1.0     0.051702     0.948634     0.054356  Biso 1.000000     H
    H   1.0     0.551709     0.448644     0.054356  Biso 1.000000     H
    H   1.0     0.551711     0.948634     0.054356  Biso 1.000000     H
    C   1.0     0.319609     0.430929     0.245044  Biso 1.000000     C
    C   1.0     0.319611     0.930919     0.245044  Biso 1.000000     C
    C   1.0     0.819619     0.430929     0.245045  Biso 1.000000     C
    C   1.0     0.819621     0.930920     0.245045  Biso 1.000000     C
    C   1.0     0.236840     0.010247     0.210225  Biso 1.000000     C
    C   1.0     0.236843     0.510238     0.210224  Biso 1.000000     C
    C   1.0     0.736850     0.010247     0.210224  Biso 1.000000     C
    C   1.0     0.736853     0.510238     0.210224  Biso 1.000000     C
    C   1.0     0.180393     0.069040     0.745012  Biso 1.000000     C
    C   1.0     0.180395     0.569031     0.745012  Biso 1.000000     C
    C   1.0     0.680403     0.069041     0.745012  Biso 1.000000     C
    C   1.0     0.680404     0.569031     0.745012  Biso 1.000000     C
    C   1.0     0.263166     0.489725     0.710194  Biso 1.000000     C
    C   1.0     0.263168     0.989716     0.710194  Biso 1.000000     C
    C   1.0     0.763175     0.489726     0.710194  Biso 1.000000     C
    C   1.0     0.763177     0.989716     0.710195  Biso 1.000000     C
    C   1.0     0.431204     0.319639     0.744990  Biso 1.000000     C
    C   1.0     0.431206     0.819630     0.744990  Biso 1.000000     C
    C   1.0     0.931213     0.319640     0.744990  Biso 1.000000     C
    C   1.0     0.931216     0.819630     0.744989  Biso 1.000000     C
    C   1.0     0.010310     0.236646     0.710280  Biso 1.000000     C
    C   1.0     0.010312     0.736636     0.710280  Biso 1.000000     C
    C   1.0     0.510319     0.236646     0.710281  Biso 1.000000     C
    C   1.0     0.510322     0.736636     0.710280  Biso 1.000000     C
    C   1.0     0.068805     0.180336     0.245022  Biso 1.000000     C
    C   1.0     0.068808     0.680326     0.245022  Biso 1.000000     C
    C   1.0     0.568815     0.180336     0.245022  Biso 1.000000     C
    C   1.0     0.568818     0.680326     0.245022  Biso 1.000000     C
    C   1.0     0.489698     0.263325     0.210308  Biso 1.000000     C
    C   1.0     0.489700     0.763316     0.210308  Biso 1.000000     C
    C   1.0     0.989707     0.263326     0.210308  Biso 1.000000     C
    C   1.0     0.989710     0.763316     0.210308  Biso 1.000000     C
    C   1.0     0.331619     0.168601     0.481948  Biso 1.000000     C
    C   1.0     0.331621     0.668591     0.481948  Biso 1.000000     C
    C   1.0     0.831628     0.168600     0.481948  Biso 1.000000     C
    C   1.0     0.831630     0.668591     0.481948  Biso 1.000000     C
    C   1.0     0.412361     0.087467     0.517645  Biso 1.000000     C
    C   1.0     0.412364     0.587458     0.517645  Biso 1.000000     C
    C   1.0     0.912371     0.087468     0.517645  Biso 1.000000     C
    C   1.0     0.912373     0.587457     0.517645  Biso 1.000000     C
    C   1.0     0.168395     0.331366     0.981916  Biso 1.000000     C
    C   1.0     0.168397     0.831356     0.981916  Biso 1.000000     C
    C   1.0     0.668405     0.331367     0.981916  Biso 1.000000     C
    C   1.0     0.668407     0.831356     0.981916  Biso 1.000000     C
    C   1.0     0.087649     0.412502     0.017640  Biso 1.000000     C
    C   1.0     0.087651     0.912492     0.017640  Biso 1.000000     C
    C   1.0     0.587658     0.412502     0.017640  Biso 1.000000     C
    C   1.0     0.587661     0.912492     0.017640  Biso 1.000000     C
    N   1.0     0.350747     0.000099     0.260759  Biso 1.000000     N
    N   1.0     0.350750     0.500089     0.260759  Biso 1.000000     N
    N   1.0     0.850757     0.000099     0.260759  Biso 1.000000     N
    N   1.0     0.850759     0.500089     0.260759  Biso 1.000000     N
    N   1.0     0.297119     0.051673     0.238450  Biso 1.000000     N
    N   1.0     0.297122     0.551663     0.238450  Biso 1.000000     N
    N   1.0     0.797129     0.051673     0.238450  Biso 1.000000     N
    N   1.0     0.797132     0.551663     0.238450  Biso 1.000000     N
    N   1.0     0.248365     0.434390     0.213337  Biso 1.000000     N
    N   1.0     0.248367     0.934380     0.213337  Biso 1.000000     N
    N   1.0     0.748375     0.434390     0.213337  Biso 1.000000     N
    N   1.0     0.748377     0.934381     0.213337  Biso 1.000000     N
    N   1.0     0.149256     0.499870     0.760724  Biso 1.000000     N
    N   1.0     0.149258     0.999860     0.760724  Biso 1.000000     N
    N   1.0     0.649265     0.499870     0.760725  Biso 1.000000     N
    N   1.0     0.649268     0.999860     0.760725  Biso 1.000000     N
    N   1.0     0.202886     0.448297     0.738417  Biso 1.000000     N
    N   1.0     0.202888     0.948288     0.738417  Biso 1.000000     N
    N   1.0     0.702895     0.448298     0.738417  Biso 1.000000     N
    N   1.0     0.702898     0.948288     0.738418  Biso 1.000000     N
    N   1.0     0.251639     0.065582     0.713307  Biso 1.000000     N
    N   1.0     0.251641     0.565572     0.713307  Biso 1.000000     N
    N   1.0     0.751649     0.065582     0.713308  Biso 1.000000     N
    N   1.0     0.751650     0.565572     0.713308  Biso 1.000000     N
    N   1.0     0.000356     0.350680     0.760731  Biso 1.000000     N
    N   1.0     0.000359     0.850670     0.760731  Biso 1.000000     N
    N   1.0     0.500366     0.350680     0.760731  Biso 1.000000     N
    N   1.0     0.500368     0.850670     0.760731  Biso 1.000000     N
    N   1.0     0.051805     0.296912     0.738479  Biso 1.000000     N
    N   1.0     0.051807     0.796902     0.738479  Biso 1.000000     N
    N   1.0     0.551814     0.296912     0.738479  Biso 1.000000     N
    N   1.0     0.551817     0.796902     0.738479  Biso 1.000000     N
    N   1.0     0.434541     0.248309     0.713371  Biso 1.000000     N
    N   1.0     0.434543     0.748299     0.713370  Biso 1.000000     N
    N   1.0     0.934551     0.248309     0.713371  Biso 1.000000     N
    N   1.0     0.934553     0.748299     0.713370  Biso 1.000000     N
    N   1.0     0.499653     0.149294     0.260765  Biso 1.000000     N
    N   1.0     0.499656     0.649285     0.260765  Biso 1.000000     N
    N   1.0     0.999663     0.149295     0.260765  Biso 1.000000     N
    N   1.0     0.999665     0.649285     0.260766  Biso 1.000000     N
    N   1.0     0.448204     0.203060     0.238510  Biso 1.000000     N
    N   1.0     0.448206     0.703050     0.238510  Biso 1.000000     N
    N   1.0     0.948214     0.203060     0.238511  Biso 1.000000     N
    N   1.0     0.948216     0.703050     0.238511  Biso 1.000000     N
    N   1.0     0.065467     0.251666     0.213398  Biso 1.000000     N
    N   1.0     0.065469     0.751656     0.213398  Biso 1.000000     N
    N   1.0     0.565477     0.251665     0.213398  Biso 1.000000     N
    N   1.0     0.565479     0.751656     0.213398  Biso 1.000000     N
    N   1.0     0.358850     0.141256     0.410478  Biso 1.000000     N
    N   1.0     0.358852     0.641246     0.410478  Biso 1.000000     N
    N   1.0     0.858859     0.141256     0.410478  Biso 1.000000     N
    N   1.0     0.858862     0.641246     0.410478  Biso 1.000000     N
    N   1.0     0.411282     0.088572     0.433599  Biso 1.000000     N
    N   1.0     0.411285     0.588563     0.433599  Biso 1.000000     N
    N   1.0     0.911292     0.088573     0.433599  Biso 1.000000     N
    N   1.0     0.911294     0.588563     0.433599  Biso 1.000000     N
    N   1.0     0.363316     0.136740     0.550712  Biso 1.000000     N
    N   1.0     0.363319     0.636730     0.550712  Biso 1.000000     N
    N   1.0     0.863326     0.136740     0.550712  Biso 1.000000     N
    N   1.0     0.863328     0.636730     0.550712  Biso 1.000000     N
    N   1.0     0.141165     0.358709     0.910445  Biso 1.000000     N
    N   1.0     0.141167     0.858699     0.910445  Biso 1.000000     N
    N   1.0     0.641175     0.358709     0.910445  Biso 1.000000     N
    N   1.0     0.641177     0.858699     0.910445  Biso 1.000000     N
    N   1.0     0.088732     0.411392     0.933566  Biso 1.000000     N
    N   1.0     0.088734     0.911382     0.933566  Biso 1.000000     N
    N   1.0     0.588741     0.411392     0.933567  Biso 1.000000     N
    N   1.0     0.588744     0.911382     0.933567  Biso 1.000000     N
    N   1.0     0.136693     0.363231     0.050708  Biso 1.000000     N
    N   1.0     0.136695     0.863220     0.050708  Biso 1.000000     N
    N   1.0     0.636703     0.363231     0.050709  Biso 1.000000     N
    N   1.0     0.636705     0.863221     0.050708  Biso 1.000000     N
   Cl   1.0     0.058063     0.442516     0.286494  Biso 1.000000    Cl
   Cl   1.0     0.058064     0.942506     0.286494  Biso 1.000000    Cl
   Cl   1.0     0.558072     0.442515     0.286494  Biso 1.000000    Cl
   Cl   1.0     0.558074     0.942506     0.286494  Biso 1.000000    Cl
   Cl   1.0     0.229463     0.270207     0.337868  Biso 1.000000    Cl
   Cl   1.0     0.229465     0.770197     0.337868  Biso 1.000000    Cl
   Cl   1.0     0.729472     0.270207     0.337868  Biso 1.000000    Cl
   Cl   1.0     0.729475     0.770197     0.337868  Biso 1.000000    Cl
   Cl   1.0     0.269117     0.230756     0.126439  Biso 1.000000    Cl
   Cl   1.0     0.269119     0.730746     0.126439  Biso 1.000000    Cl
   Cl   1.0     0.769127     0.230756     0.126439  Biso 1.000000    Cl
   Cl   1.0     0.769129     0.730746     0.126439  Biso 1.000000    Cl
   Cl   1.0     0.441946     0.057449     0.786454  Biso 1.000000    Cl
   Cl   1.0     0.441947     0.557440     0.786454  Biso 1.000000    Cl
   Cl   1.0     0.941956     0.057449     0.786453  Biso 1.000000    Cl
   Cl   1.0     0.941957     0.557439     0.786453  Biso 1.000000    Cl
   Cl   1.0     0.270540     0.229761     0.837842  Biso 1.000000    Cl
   Cl   1.0     0.270543     0.729751     0.837842  Biso 1.000000    Cl
   Cl   1.0     0.770550     0.229762     0.837842  Biso 1.000000    Cl
   Cl   1.0     0.770552     0.729752     0.837842  Biso 1.000000    Cl
   Cl   1.0     0.230900     0.269221     0.626412  Biso 1.000000    Cl
   Cl   1.0     0.230902     0.769211     0.626412  Biso 1.000000    Cl
   Cl   1.0     0.730909     0.269221     0.626412  Biso 1.000000    Cl
   Cl   1.0     0.730912     0.769211     0.626412  Biso 1.000000    Cl
   Cd   1.0     0.464938     0.034973     0.320659  Biso 1.000000    Cd
   Cd   1.0     0.464940     0.534963     0.320659  Biso 1.000000    Cd
   Cd   1.0     0.964948     0.034973     0.320659  Biso 1.000000    Cd
   Cd   1.0     0.964950     0.534963     0.320659  Biso 1.000000    Cd
   Cd   1.0     0.173086     0.326810     0.187377  Biso 1.000000    Cd
   Cd   1.0     0.173088     0.826800     0.187377  Biso 1.000000    Cd
   Cd   1.0     0.673096     0.326810     0.187378  Biso 1.000000    Cd
   Cd   1.0     0.673098     0.826800     0.187377  Biso 1.000000    Cd
   Cd   1.0     0.320276     0.179688     0.270743  Biso 1.000000    Cd
   Cd   1.0     0.320279     0.679678     0.270743  Biso 1.000000    Cd
   Cd   1.0     0.820286     0.179688     0.270743  Biso 1.000000    Cd
   Cd   1.0     0.820288     0.679678     0.270743  Biso 1.000000    Cd
   Cd   1.0     0.035070     0.464995     0.820632  Biso 1.000000    Cd
   Cd   1.0     0.035072     0.964985     0.820632  Biso 1.000000    Cd
   Cd   1.0     0.535079     0.464995     0.820632  Biso 1.000000    Cd
   Cd   1.0     0.535082     0.964985     0.820632  Biso 1.000000    Cd
   Cd   1.0     0.326921     0.173163     0.687372  Biso 1.000000    Cd
   Cd   1.0     0.326924     0.673153     0.687372  Biso 1.000000    Cd
   Cd   1.0     0.826931     0.173163     0.687372  Biso 1.000000    Cd
   Cd   1.0     0.826933     0.673153     0.687372  Biso 1.000000    Cd
   Cd   1.0     0.179731     0.320283     0.770706  Biso 1.000000    Cd
   Cd   1.0     0.179734     0.820273     0.770706  Biso 1.000000    Cd
   Cd   1.0     0.679741     0.320283     0.770706  Biso 1.000000    Cd
   Cd   1.0     0.679743     0.820273     0.770706  Biso 1.000000    Cd
