#======================================================================

# CRYSTAL DATA

#----------------------------------------------------------------------

data_VESTA_phase_1


_pd_phase_name                         MOF
_cell_length_a                         21.56200
_cell_length_b                         17.66600
_cell_length_c                         17.19600
_cell_angle_alpha                      89.98600
_cell_angle_beta                       89.95500
_cell_angle_gamma                      90.01100
_symmetry_space_group_name_H-M         "P 1"
_symmetry_Int_Tables_number            1

loop_
_symmetry_equiv_pos_as_xyz
   "x, y, z"

loop_
   _atom_site_label
   _atom_site_occupancy
   _atom_site_fract_x
   _atom_site_fract_y
   _atom_site_fract_z
   _atom_site_adp_type
   _atom_site_B_iso_or_equiv
   _atom_site_type_symbol
    H   1.0     0.005301     0.294862     0.549153  Biso 1.000000     H
    H   1.0     0.505956     0.295132     0.549748  Biso 1.000000     H
    H   1.0     0.114077     0.094261     0.541772  Biso 1.000000     H
    H   1.0     0.614735     0.094421     0.544195  Biso 1.000000     H
    H   1.0     0.122943     0.402111     0.138838  Biso 1.000000     H
    H   1.0     0.623495     0.401425     0.138058  Biso 1.000000     H
    H   1.0     0.105324     0.300270     0.236299  Biso 1.000000     H
    H   1.0     0.605318     0.300316     0.236054  Biso 1.000000     H
    H   1.0     0.288959     0.467861     0.260078  Biso 1.000000     H
    H   1.0     0.789121     0.467542     0.259868  Biso 1.000000     H
    H   1.0     0.096479     0.450453     0.838797  Biso 1.000000     H
    H   1.0     0.596861     0.451333     0.838701  Biso 1.000000     H
    H   1.0     0.084573     0.351549     0.736665  Biso 1.000000     H
    H   1.0     0.585077     0.351976     0.736976  Biso 1.000000     H
    H   1.0     0.281246     0.496584     0.757170  Biso 1.000000     H
    H   1.0     0.781752     0.497130     0.757410  Biso 1.000000     H
    H   1.0     0.243729     0.702360     0.049885  Biso 1.000000     H
    H   1.0     0.744178     0.703008     0.049543  Biso 1.000000     H
    H   1.0     0.135131     0.905105     0.041546  Biso 1.000000     H
    H   1.0     0.634487     0.904403     0.042768  Biso 1.000000     H
    H   1.0     0.127200     0.596868     0.638164  Biso 1.000000     H
    H   1.0     0.626605     0.597284     0.638210  Biso 1.000000     H
    H   1.0     0.145624     0.698179     0.735856  Biso 1.000000     H
    H   1.0     0.644305     0.699077     0.735509  Biso 1.000000     H
    H   1.0     0.461203     0.530874     0.760739  Biso 1.000000     H
    H   1.0     0.961116     0.532187     0.760180  Biso 1.000000     H
    H   1.0     0.153411     0.548135     0.339591  Biso 1.000000     H
    H   1.0     0.652875     0.546885     0.338835  Biso 1.000000     H
    H   1.0     0.165290     0.647291     0.237621  Biso 1.000000     H
    H   1.0     0.664978     0.645753     0.236598  Biso 1.000000     H
    H   1.0     0.468089     0.501083     0.257465  Biso 1.000000     H
    H   1.0     0.968718     0.501894     0.258157  Biso 1.000000     H
    H   1.0     0.494433     0.795620     0.950180  Biso 1.000000     H
    H   1.0     0.995033     0.795487     0.950124  Biso 1.000000     H
    H   1.0     0.385041     0.594948     0.955260  Biso 1.000000     H
    H   1.0     0.886006     0.594798     0.955450  Biso 1.000000     H
    H   1.0     0.376063     0.901318     0.361047  Biso 1.000000     H
    H   1.0     0.877590     0.902102     0.359536  Biso 1.000000     H
    H   1.0     0.394095     0.800064     0.263092  Biso 1.000000     H
    H   1.0     0.895134     0.801035     0.261417  Biso 1.000000     H
    H   1.0     0.210929     0.968269     0.238659  Biso 1.000000     H
    H   1.0     0.710709     0.967394     0.239961  Biso 1.000000     H
    H   1.0     0.403146     0.950380     0.659492  Biso 1.000000     H
    H   1.0     0.903872     0.950724     0.660114  Biso 1.000000     H
    H   1.0     0.415087     0.851336     0.761576  Biso 1.000000     H
    H   1.0     0.915854     0.851642     0.762127  Biso 1.000000     H
    H   1.0     0.218629     0.996904     0.741585  Biso 1.000000     H
    H   1.0     0.719340     0.997045     0.742301  Biso 1.000000     H
    H   1.0     0.255472     0.202236     0.449648  Biso 1.000000     H
    H   1.0     0.755923     0.202339     0.449357  Biso 1.000000     H
    H   1.0     0.364715     0.403279     0.455467  Biso 1.000000     H
    H   1.0     0.865094     0.404312     0.455628  Biso 1.000000     H
    H   1.0     0.372362     0.096189     0.860751  Biso 1.000000     H
    H   1.0     0.873165     0.098194     0.860566  Biso 1.000000     H
    H   1.0     0.354461     0.197832     0.763241  Biso 1.000000     H
    H   1.0     0.855322     0.199463     0.762616  Biso 1.000000     H
    H   1.0     0.037856     0.030518     0.737365  Biso 1.000000     H
    H   1.0     0.538664     0.031368     0.739395  Biso 1.000000     H
    H   1.0     0.347487     0.046998     0.160739  Biso 1.000000     H
    H   1.0     0.846265     0.047477     0.159453  Biso 1.000000     H
    H   1.0     0.335353     0.145741     0.263095  Biso 1.000000     H
    H   1.0     0.834309     0.147101     0.260904  Biso 1.000000     H
    H   1.0     0.030873     0.001654     0.241312  Biso 1.000000     H
    H   1.0     0.532349     0.001423     0.241912  Biso 1.000000     H
    C   1.0     0.208066     0.440219     0.191694  Biso 1.000000     C
    C   1.0     0.708505     0.439763     0.191081  Biso 1.000000     C
    C   1.0     0.155738     0.393424     0.186124  Biso 1.000000     C
    C   1.0     0.656112     0.393034     0.185600  Biso 1.000000     C
    C   1.0     0.146027     0.336627     0.240855  Biso 1.000000     C
    C   1.0     0.646064     0.336595     0.240709  Biso 1.000000     C
    C   1.0     0.187635     0.326022     0.302661  Biso 1.000000     C
    C   1.0     0.687406     0.326151     0.302842  Biso 1.000000     C
    C   1.0     0.238904     0.375088     0.310191  Biso 1.000000     C
    C   1.0     0.738734     0.375189     0.310193  Biso 1.000000     C
    C   1.0     0.248878     0.430898     0.253952  Biso 1.000000     C
    C   1.0     0.748996     0.430666     0.253693  Biso 1.000000     C
    C   1.0     0.219615     0.501339     0.133512  Biso 1.000000     C
    C   1.0     0.720607     0.500632     0.132694  Biso 1.000000     C
    C   1.0     0.171218     0.263427     0.358814  Biso 1.000000     C
    C   1.0     0.671089     0.263703     0.359415  Biso 1.000000     C
    C   1.0     0.283244     0.370514     0.377141  Biso 1.000000     C
    C   1.0     0.783141     0.370923     0.377046  Biso 1.000000     C
    C   1.0     0.189472     0.480274     0.804408  Biso 1.000000     C
    C   1.0     0.689855     0.481080     0.804326  Biso 1.000000     C
    C   1.0     0.134242     0.438750     0.798460  Biso 1.000000     C
    C   1.0     0.634651     0.439494     0.798451  Biso 1.000000     C
    C   1.0     0.127749     0.383434     0.741170  Biso 1.000000     C
    C   1.0     0.628224     0.383929     0.741390  Biso 1.000000     C
    C   1.0     0.176508     0.367851     0.689746  Biso 1.000000     C
    C   1.0     0.677021     0.368298     0.690059  Biso 1.000000     C
    C   1.0     0.232419     0.409018     0.695899  Biso 1.000000     C
    C   1.0     0.732923     0.409452     0.696343  Biso 1.000000     C
    C   1.0     0.238019     0.465144     0.752682  Biso 1.000000     C
    C   1.0     0.738522     0.465704     0.752911  Biso 1.000000     C
    C   1.0     0.198485     0.539254     0.866014  Biso 1.000000     C
    C   1.0     0.698837     0.540260     0.865662  Biso 1.000000     C
    C   1.0     0.169317     0.304610     0.631675  Biso 1.000000     C
    C   1.0     0.670153     0.304962     0.632015  Biso 1.000000     C
    C   1.0     0.286196     0.391551     0.643861  Biso 1.000000     C
    C   1.0     0.786567     0.391941     0.644306  Biso 1.000000     C
    C   1.0     0.041923     0.559329     0.691337  Biso 1.000000     C
    C   1.0     0.541766     0.558700     0.691639  Biso 1.000000     C
    C   1.0     0.094568     0.605594     0.685693  Biso 1.000000     C
    C   1.0     0.593970     0.605701     0.685793  Biso 1.000000     C
    C   1.0     0.104756     0.662108     0.740634  Biso 1.000000     C
    C   1.0     0.603766     0.662490     0.740545  Biso 1.000000     C
    C   1.0     0.063383     0.672918     0.802751  Biso 1.000000     C
    C   1.0     0.562498     0.672863     0.802847  Biso 1.000000     C
    C   1.0     0.011907     0.624141     0.810366  Biso 1.000000     C
    C   1.0     0.511421     0.623469     0.810659  Biso 1.000000     C
    C   1.0     0.001419     0.568769     0.753926  Biso 1.000000     C
    C   1.0     0.501241     0.567867     0.754293  Biso 1.000000     C
    C   1.0     0.029282     0.498455     0.633284  Biso 1.000000     C
    C   1.0     0.529863     0.497516     0.633552  Biso 1.000000     C
    C   1.0     0.079747     0.735701     0.858772  Biso 1.000000     C
    C   1.0     0.578725     0.735768     0.858878  Biso 1.000000     C
    C   1.0     0.467394     0.627508     0.878018  Biso 1.000000     C
    C   1.0     0.967631     0.628370     0.877416  Biso 1.000000     C
    C   1.0     0.060561     0.518038     0.305085  Biso 1.000000     C
    C   1.0     0.559891     0.517208     0.304505  Biso 1.000000     C
    C   1.0     0.115685     0.559804     0.299259  Biso 1.000000     C
    C   1.0     0.615162     0.558643     0.298513  Biso 1.000000     C
    C   1.0     0.122174     0.615265     0.242063  Biso 1.000000     C
    C   1.0     0.621762     0.613945     0.241195  Biso 1.000000     C
    C   1.0     0.073487     0.630694     0.190588  Biso 1.000000     C
    C   1.0     0.573016     0.629695     0.189908  Biso 1.000000     C
    C   1.0     0.017530     0.589644     0.196977  Biso 1.000000     C
    C   1.0     0.516980     0.588722     0.196238  Biso 1.000000     C
    C   1.0     0.011942     0.533354     0.253613  Biso 1.000000     C
    C   1.0     0.511349     0.532461     0.252898  Biso 1.000000     C
    C   1.0     0.051710     0.458600     0.366310  Biso 1.000000     C
    C   1.0     0.550844     0.458233     0.366123  Biso 1.000000     C
    C   1.0     0.080493     0.693684     0.132171  Biso 1.000000     C
    C   1.0     0.580433     0.692891     0.131793  Biso 1.000000     C
    C   1.0     0.463065     0.606800     0.144767  Biso 1.000000     C
    C   1.0     0.963748     0.607451     0.145249  Biso 1.000000     C
    C   1.0     0.291323     0.939940     0.307628  Biso 1.000000     C
    C   1.0     0.792020     0.940053     0.307668  Biso 1.000000     C
    C   1.0     0.343574     0.893067     0.313345  Biso 1.000000     C
    C   1.0     0.844539     0.893501     0.312510  Biso 1.000000     C
    C   1.0     0.353530     0.836611     0.258311  Biso 1.000000     C
    C   1.0     0.854207     0.837058     0.257354  Biso 1.000000     C
    C   1.0     0.312289     0.826535     0.196041  Biso 1.000000     C
    C   1.0     0.812330     0.826302     0.195825  Biso 1.000000     C
    C   1.0     0.261193     0.875838     0.188353  Biso 1.000000     C
    C   1.0     0.760767     0.875073     0.189125  Biso 1.000000     C
    C   1.0     0.250941     0.931229     0.244862  Biso 1.000000     C
    C   1.0     0.750949     0.930640     0.245673  Biso 1.000000     C
    C   1.0     0.279206     0.000549     0.366123  Biso 1.000000     C
    C   1.0     0.780474     0.001045     0.366120  Biso 1.000000     C
    C   1.0     0.328684     0.764218     0.139536  Biso 1.000000     C
    C   1.0     0.828780     0.763900     0.139267  Biso 1.000000     C
    C   1.0     0.216940     0.871514     0.121358  Biso 1.000000     C
    C   1.0     0.715863     0.870709     0.122711  Biso 1.000000     C
    C   1.0     0.310278     0.980336     0.694167  Biso 1.000000     C
    C   1.0     0.811032     0.980721     0.694914  Biso 1.000000     C
    C   1.0     0.365467     0.938724     0.699971  Biso 1.000000     C
    C   1.0     0.866192     0.939049     0.700588  Biso 1.000000     C
    C   1.0     0.371981     0.883357     0.757213  Biso 1.000000     C
    C   1.0     0.872728     0.883636     0.757808  Biso 1.000000     C
    C   1.0     0.323281     0.867944     0.808780  Biso 1.000000     C
    C   1.0     0.824045     0.868126     0.809380  Biso 1.000000     C
    C   1.0     0.267494     0.909318     0.802764  Biso 1.000000     C
    C   1.0     0.768160     0.909304     0.803295  Biso 1.000000     C
    C   1.0     0.261805     0.965375     0.745973  Biso 1.000000     C
    C   1.0     0.762525     0.965530     0.746654  Biso 1.000000     C
    C   1.0     0.301250     0.039110     0.632473  Biso 1.000000     C
    C   1.0     0.801924     0.039892     0.633559  Biso 1.000000     C
    C   1.0     0.330322     0.804548     0.866701  Biso 1.000000     C
    C   1.0     0.831061     0.804840     0.867440  Biso 1.000000     C
    C   1.0     0.213943     0.892280     0.855122  Biso 1.000000     C
    C   1.0     0.714466     0.891737     0.855333  Biso 1.000000     C
    C   1.0     0.457687     0.058504     0.807926  Biso 1.000000     C
    C   1.0     0.957667     0.059058     0.806780  Biso 1.000000     C
    C   1.0     0.405163     0.104979     0.813415  Biso 1.000000     C
    C   1.0     0.905629     0.106254     0.812727  Biso 1.000000     C
    C   1.0     0.395284     0.161690     0.758590  Biso 1.000000     C
    C   1.0     0.895787     0.162766     0.757653  Biso 1.000000     C
    C   1.0     0.436856     0.172540     0.696684  Biso 1.000000     C
    C   1.0     0.936950     0.172755     0.695162  Biso 1.000000     C
    C   1.0     0.488278     0.123694     0.689238  Biso 1.000000     C
    C   1.0     0.987888     0.123185     0.687304  Biso 1.000000     C
    C   1.0     0.498428     0.068051     0.745568  Biso 1.000000     C
    C   1.0     0.997978     0.067738     0.743815  Biso 1.000000     C
    C   1.0     0.469843     0.997523     0.866122  Biso 1.000000     C
    C   1.0     0.969925     0.998166     0.865040  Biso 1.000000     C
    C   1.0     0.420414     0.234953     0.640218  Biso 1.000000     C
    C   1.0     0.920628     0.235305     0.638804  Biso 1.000000     C
    C   1.0     0.032052     0.126990     0.620019  Biso 1.000000     C
    C   1.0     0.532884     0.128225     0.622514  Biso 1.000000     C
    C   1.0     0.440465     0.017385     0.195093  Biso 1.000000     C
    C   1.0     0.939124     0.017660     0.194207  Biso 1.000000     C
    C   1.0     0.385181     0.058762     0.201084  Biso 1.000000     C
    C   1.0     0.883968     0.059383     0.199745  Biso 1.000000     C
    C   1.0     0.378559     0.113946     0.258461  Biso 1.000000     C
    C   1.0     0.877451     0.115132     0.256603  Biso 1.000000     C
    C   1.0     0.427281     0.129540     0.309822  Biso 1.000000     C
    C   1.0     0.926171     0.130944     0.307899  Biso 1.000000     C
    C   1.0     0.483373     0.088817     0.303399  Biso 1.000000     C
    C   1.0     0.982087     0.089779     0.301820  Biso 1.000000     C
    C   1.0     0.489065     0.032712     0.246596  Biso 1.000000     C
    C   1.0     0.987677     0.033166     0.245623  Biso 1.000000     C
    C   1.0     0.449369     0.958265     0.133621  Biso 1.000000     C
    C   1.0     0.948217     0.958244     0.133152  Biso 1.000000     C
    C   1.0     0.419957     0.192698     0.367842  Biso 1.000000     C
    C   1.0     0.919179     0.194224     0.365942  Biso 1.000000     C
    C   1.0     0.035901     0.107756     0.353293  Biso 1.000000     C
    C   1.0     0.537170     0.106678     0.355168  Biso 1.000000     C
    O   1.0     0.274414     0.527753     0.130014  Biso 1.000000     O
    O   1.0     0.775402     0.527209     0.130063  Biso 1.000000     O
    O   1.0     0.173319     0.522054     0.092494  Biso 1.000000     O
    O   1.0     0.674777     0.521027     0.090657  Biso 1.000000     O
    O   1.0     0.197035     0.198618     0.349877  Biso 1.000000     O
    O   1.0     0.696460     0.198755     0.350029  Biso 1.000000     O
    O   1.0     0.128460     0.278507     0.406995  Biso 1.000000     O
    O   1.0     0.629117     0.279010     0.408633  Biso 1.000000     O
    O   1.0     0.319842     0.424911     0.389911  Biso 1.000000     O
    O   1.0     0.819093     0.425783     0.390223  Biso 1.000000     O
    O   1.0     0.280371     0.309198     0.417179  Biso 1.000000     O
    O   1.0     0.781056     0.309177     0.416532  Biso 1.000000     O
    O   1.0     0.247859     0.578646     0.860200  Biso 1.000000     O
    O   1.0     0.748740     0.578785     0.860463  Biso 1.000000     O
    O   1.0     0.157076     0.544630     0.919032  Biso 1.000000     O
    O   1.0     0.656908     0.546624     0.917867  Biso 1.000000     O
    O   1.0     0.189322     0.240141     0.653531  Biso 1.000000     O
    O   1.0     0.690692     0.240737     0.653765  Biso 1.000000     O
    O   1.0     0.141606     0.315332     0.567008  Biso 1.000000     O
    O   1.0     0.642303     0.315346     0.567365  Biso 1.000000     O
    O   1.0     0.337649     0.425319     0.657505  Biso 1.000000     O
    O   1.0     0.838680     0.423482     0.659329  Biso 1.000000     O
    O   1.0     0.276874     0.343591     0.590237  Biso 1.000000     O
    O   1.0     0.776197     0.346063     0.589035  Biso 1.000000     O
    O   1.0     0.024144     0.312025     0.500030  Biso 1.000000     O
    O   1.0     0.524651     0.312036     0.500478  Biso 1.000000     O
    O   1.0     0.144311     0.125946     0.507653  Biso 1.000000     O
    O   1.0     0.645180     0.125576     0.509695  Biso 1.000000     O
    O   1.0     0.474732     0.472050     0.629995  Biso 1.000000     O
    O   1.0     0.973720     0.474294     0.629800  Biso 1.000000     O
    O   1.0     0.075132     0.475756     0.592640  Biso 1.000000     O
    O   1.0     0.576044     0.475820     0.592831  Biso 1.000000     O
    O   1.0     0.053319     0.800108     0.849846  Biso 1.000000     O
    O   1.0     0.552269     0.800239     0.850037  Biso 1.000000     O
    O   1.0     0.122611     0.721237     0.906925  Biso 1.000000     O
    O   1.0     0.621737     0.721417     0.906831  Biso 1.000000     O
    O   1.0     0.429752     0.573877     0.889616  Biso 1.000000     O
    O   1.0     0.930987     0.573938     0.889908  Biso 1.000000     O
    O   1.0     0.471608     0.687528     0.919816  Biso 1.000000     O
    O   1.0     0.970509     0.689380     0.917867  Biso 1.000000     O
    O   1.0     0.501633     0.418580     0.360144  Biso 1.000000     O
    O   1.0     0.000000     0.418724     0.360069  Biso 1.000000     O
    O   1.0     0.092981     0.453276     0.419456  Biso 1.000000     O
    O   1.0     0.592093     0.453150     0.419282  Biso 1.000000     O
    O   1.0     0.061208     0.758401     0.154295  Biso 1.000000     O
    O   1.0     0.561275     0.757636     0.153892  Biso 1.000000     O
    O   1.0     0.107108     0.682610     0.066820  Biso 1.000000     O
    O   1.0     0.607517     0.681779     0.066721  Biso 1.000000     O
    O   1.0     0.411782     0.572166     0.157296  Biso 1.000000     O
    O   1.0     0.911912     0.574888     0.159834  Biso 1.000000     O
    O   1.0     0.472082     0.656426     0.092666  Biso 1.000000     O
    O   1.0     0.973439     0.654560     0.090874  Biso 1.000000     O
    O   1.0     0.224965     0.686098     0.000489  Biso 1.000000     O
    O   1.0     0.725503     0.686694     0.000060  Biso 1.000000     O
    O   1.0     0.104882     0.873368     0.007813  Biso 1.000000     O
    O   1.0     0.604780     0.872852     0.008077  Biso 1.000000     O
    O   1.0     0.224014     0.025724     0.369984  Biso 1.000000     O
    O   1.0     0.725579     0.027169     0.369907  Biso 1.000000     O
    O   1.0     0.325332     0.021953     0.407014  Biso 1.000000     O
    O   1.0     0.826768     0.021981     0.407039  Biso 1.000000     O
    O   1.0     0.304071     0.698903     0.149704  Biso 1.000000     O
    O   1.0     0.802879     0.699079     0.147685  Biso 1.000000     O
    O   1.0     0.370029     0.780076     0.089683  Biso 1.000000     O
    O   1.0     0.871573     0.779044     0.091105  Biso 1.000000     O
    O   1.0     0.181606     0.926688     0.107072  Biso 1.000000     O
    O   1.0     0.679839     0.925528     0.109760  Biso 1.000000     O
    O   1.0     0.218492     0.809049     0.082997  Biso 1.000000     O
    O   1.0     0.717708     0.808926     0.083302  Biso 1.000000     O
    O   1.0     0.251407     0.077744     0.637193  Biso 1.000000     O
    O   1.0     0.752579     0.079283     0.639697  Biso 1.000000     O
    O   1.0     0.343251     0.044956     0.580263  Biso 1.000000     O
    O   1.0     0.843210     0.045402     0.580436  Biso 1.000000     O
    O   1.0     0.309163     0.740484     0.845368  Biso 1.000000     O
    O   1.0     0.810525     0.740577     0.845873  Biso 1.000000     O
    O   1.0     0.359116     0.814697     0.930696  Biso 1.000000     O
    O   1.0     0.859055     0.815372     0.931945  Biso 1.000000     O
    O   1.0     0.162032     0.924364     0.840131  Biso 1.000000     O
    O   1.0     0.662468     0.923594     0.840006  Biso 1.000000     O
    O   1.0     0.224085     0.846381     0.910431  Biso 1.000000     O
    O   1.0     0.724459     0.845697     0.910526  Biso 1.000000     O
    O   1.0     0.475461     0.812014     0.999465  Biso 1.000000     O
    O   1.0     0.976230     0.812310     0.999358  Biso 1.000000     O
    O   1.0     0.354860     0.626255     0.990138  Biso 1.000000     O
    O   1.0     0.855795     0.625972     0.990321  Biso 1.000000     O
    O   1.0     0.024889     0.971993     0.866850  Biso 1.000000     O
    O   1.0     0.525111     0.972528     0.869824  Biso 1.000000     O
    O   1.0     0.423782     0.975576     0.906908  Biso 1.000000     O
    O   1.0     0.924533     0.977359     0.907563  Biso 1.000000     O
    O   1.0     0.445330     0.300129     0.649797  Biso 1.000000     O
    O   1.0     0.946898     0.299895     0.647210  Biso 1.000000     O
    O   1.0     0.378818     0.218994     0.590772  Biso 1.000000     O
    O   1.0     0.877750     0.220402     0.590778  Biso 1.000000     O
    O   1.0     0.068372     0.072353     0.607216  Biso 1.000000     O
    O   1.0     0.568901     0.073350     0.609434  Biso 1.000000     O
    O   1.0     0.029396     0.188157     0.579734  Biso 1.000000     O
    O   1.0     0.530996     0.189975     0.583046  Biso 1.000000     O
    O   1.0    -0.002638     0.918509     0.139431  Biso 1.000000     O
    O   1.0     0.498461     0.918440     0.139751  Biso 1.000000     O
    O   1.0     0.408062     0.953192     0.080521  Biso 1.000000     O
    O   1.0     0.906953     0.952977     0.080035  Biso 1.000000     O
    O   1.0     0.440158     0.257056     0.346000  Biso 1.000000     O
    O   1.0     0.938737     0.258837     0.343735  Biso 1.000000     O
    O   1.0     0.392021     0.182087     0.432424  Biso 1.000000     O
    O   1.0     0.892361     0.183307     0.431201  Biso 1.000000     O
    O   1.0     0.087533     0.074438     0.339485  Biso 1.000000     O
    O   1.0     0.589078     0.074498     0.340208  Biso 1.000000     O
    O   1.0     0.026430     0.155859     0.406737  Biso 1.000000     O
    O   1.0     0.527481     0.153371     0.409915  Biso 1.000000     O
    O   1.0     0.274181     0.185778     0.499036  Biso 1.000000     O
    O   1.0     0.774676     0.186001     0.498750  Biso 1.000000     O
    O   1.0     0.394720     0.371852     0.490296  Biso 1.000000     O
    O   1.0     0.895153     0.372762     0.490016  Biso 1.000000     O
   Zn   1.0     0.080079     0.212511     0.484133  Biso 1.000000    Zn
   Zn   1.0     0.581140     0.212601     0.486483  Biso 1.000000    Zn
   Zn   1.0     0.287782     0.659819     0.919646  Biso 1.000000    Zn
   Zn   1.0     0.788787     0.659904     0.919865  Biso 1.000000    Zn
   Zn   1.0     0.336147     0.602755     0.100586  Biso 1.000000    Zn
   Zn   1.0     0.836925     0.602789     0.100675  Biso 1.000000    Zn
   Zn   1.0     0.162750     0.603609     0.016393  Biso 1.000000    Zn
   Zn   1.0     0.663870     0.603744     0.016216  Biso 1.000000    Zn
   Zn   1.0     0.170179     0.786954     0.985784  Biso 1.000000    Zn
   Zn   1.0     0.669452     0.786646     0.985906  Biso 1.000000    Zn
   Zn   1.0     0.461636     0.337555     0.419854  Biso 1.000000    Zn
   Zn   1.0     0.961765     0.337662     0.419084  Biso 1.000000    Zn
   Zn   1.0     0.413451     0.396580     0.600356  Biso 1.000000    Zn
   Zn   1.0     0.914316     0.396853     0.600157  Biso 1.000000    Zn
   Zn   1.0     0.085843     0.394177     0.516520  Biso 1.000000    Zn
   Zn   1.0     0.586692     0.394162     0.516590  Biso 1.000000    Zn
   Zn   1.0     0.418983     0.712771     0.013496  Biso 1.000000    Zn
   Zn   1.0     0.919947     0.712801     0.013591  Biso 1.000000    Zn
   Zn   1.0     0.210810     0.159599     0.579484  Biso 1.000000    Zn
   Zn   1.0     0.712185     0.159815     0.580031  Biso 1.000000    Zn
   Zn   1.0     0.163093     0.102644     0.396938  Biso 1.000000    Zn
   Zn   1.0     0.664103     0.102668     0.399198  Biso 1.000000    Zn
   Zn   1.0     0.336179     0.103383     0.483177  Biso 1.000000    Zn
   Zn   1.0     0.837266     0.104004     0.483007  Biso 1.000000    Zn
   Zn   1.0     0.330539     0.284862     0.513325  Biso 1.000000    Zn
   Zn   1.0     0.829750     0.286873     0.513380  Biso 1.000000    Zn
   Zn   1.0     0.039188     0.838225     0.080009  Biso 1.000000    Zn
   Zn   1.0     0.538599     0.837622     0.079891  Biso 1.000000    Zn
   Zn   1.0     0.085735     0.896714     0.897082  Biso 1.000000    Zn
   Zn   1.0     0.586405     0.896456     0.897133  Biso 1.000000    Zn
   Zn   1.0     0.413402     0.894034     0.983336  Biso 1.000000    Zn
   Zn   1.0     0.914330     0.894430     0.982951  Biso 1.000000    Zn
