#======================================================================

# CRYSTAL DATA

#----------------------------------------------------------------------

data_VESTA_phase_1


_pd_phase_name                         MOF
_cell_length_a                         21.83600
_cell_length_b                         13.24300
_cell_length_c                         13.24000
_cell_angle_alpha                      119.45400
_cell_angle_beta                       90.02400
_cell_angle_gamma                      90.09600
_symmetry_space_group_name_H-M         "P 1"
_symmetry_Int_Tables_number            1

loop_
_symmetry_equiv_pos_as_xyz
   "x, y, z"

loop_
   _atom_site_label
   _atom_site_occupancy
   _atom_site_fract_x
   _atom_site_fract_y
   _atom_site_fract_z
   _atom_site_adp_type
   _atom_site_B_iso_or_equiv
   _atom_site_type_symbol
    H   1.0     0.444900     0.574692     0.187444  Biso 1.000000     H
    H   1.0     0.945027     0.573885     0.187489  Biso 1.000000     H
    H   1.0     0.445380     0.615254     0.426173  Biso 1.000000     H
    H   1.0     0.945303     0.615999     0.427139  Biso 1.000000     H
    H   1.0     0.445041     0.812997     0.384595  Biso 1.000000     H
    H   1.0     0.945375     0.812679     0.384308  Biso 1.000000     H
    H   1.0     0.054738     0.615814     0.187262  Biso 1.000000     H
    H   1.0     0.554723     0.616004     0.187243  Biso 1.000000     H
    H   1.0     0.055103     0.812806     0.426101  Biso 1.000000     H
    H   1.0     0.554753     0.812467     0.426309  Biso 1.000000     H
    H   1.0     0.054971     0.574739     0.385727  Biso 1.000000     H
    H   1.0     0.555021     0.573431     0.384639  Biso 1.000000     H
    H   1.0     0.054995     0.426212     0.812550  Biso 1.000000     H
    H   1.0     0.555124     0.425408     0.812584  Biso 1.000000     H
    H   1.0     0.054722     0.384096     0.572894  Biso 1.000000     H
    H   1.0     0.554642     0.384832     0.573866  Biso 1.000000     H
    H   1.0     0.054648     0.187406     0.615718  Biso 1.000000     H
    H   1.0     0.554984     0.187100     0.615441  Biso 1.000000     H
    H   1.0     0.445301     0.384096     0.812786  Biso 1.000000     H
    H   1.0     0.945284     0.384283     0.812775  Biso 1.000000     H
    H   1.0     0.445271     0.187630     0.573726  Biso 1.000000     H
    H   1.0     0.944921     0.187280     0.573926  Biso 1.000000     H
    H   1.0     0.445001     0.426657     0.615401  Biso 1.000000     H
    H   1.0     0.945054     0.425355     0.614306  Biso 1.000000     H
    C   1.0     0.469072     0.542043     0.105237  Biso 1.000000     C
    C   1.0     0.969146     0.541615     0.105275  Biso 1.000000     C
    C   1.0     0.338860     0.491929     0.103202  Biso 1.000000     C
    C   1.0     0.839014     0.491014     0.103224  Biso 1.000000     C
    C   1.0     0.469332     0.564635     0.458469  Biso 1.000000     C
    C   1.0     0.969287     0.565022     0.458981  Biso 1.000000     C
    C   1.0     0.339294     0.613046     0.508901  Biso 1.000000     C
    C   1.0     0.839146     0.612476     0.509006  Biso 1.000000     C
    C   1.0     0.469148     0.895041     0.435275  Biso 1.000000     C
    C   1.0     0.969335     0.894867     0.435129  Biso 1.000000     C
    C   1.0     0.339183     0.897862     0.386416  Biso 1.000000     C
    C   1.0     0.839272     0.896947     0.386389  Biso 1.000000     C
    C   1.0     0.030739     0.564967     0.105138  Biso 1.000000     C
    C   1.0     0.530742     0.565055     0.105113  Biso 1.000000     C
    C   1.0     0.160787     0.613816     0.102620  Biso 1.000000     C
    C   1.0     0.660948     0.613078     0.102575  Biso 1.000000     C
    C   1.0     0.030943     0.894929     0.458408  Biso 1.000000     C
    C   1.0     0.530754     0.894733     0.458513  Biso 1.000000     C
    C   1.0     0.161126     0.897424     0.508844  Biso 1.000000     C
    C   1.0     0.660969     0.896518     0.508563  Biso 1.000000     C
    C   1.0     0.030864     0.542045     0.435919  Biso 1.000000     C
    C   1.0     0.530901     0.541349     0.435344  Biso 1.000000     C
    C   1.0     0.160852     0.491684     0.387598  Biso 1.000000     C
    C   1.0     0.660864     0.490627     0.387206  Biso 1.000000     C
    C   1.0     0.030877     0.458482     0.894763  Biso 1.000000     C
    C   1.0     0.530952     0.458057     0.894791  Biso 1.000000     C
    C   1.0     0.161009     0.509078     0.896813  Biso 1.000000     C
    C   1.0     0.661165     0.508163     0.896830  Biso 1.000000     C
    C   1.0     0.030738     0.435072     0.541052  Biso 1.000000     C
    C   1.0     0.530690     0.435451     0.541570  Biso 1.000000     C
    C   1.0     0.160880     0.387624     0.491035  Biso 1.000000     C
    C   1.0     0.660729     0.387042     0.491136  Biso 1.000000     C
    C   1.0     0.030688     0.105218     0.564896  Biso 1.000000     C
    C   1.0     0.530877     0.105056     0.564761  Biso 1.000000     C
    C   1.0     0.160752     0.103139     0.613640  Biso 1.000000     C
    C   1.0     0.660843     0.102232     0.613620  Biso 1.000000     C
    C   1.0     0.469282     0.435045     0.894916  Biso 1.000000     C
    C   1.0     0.969284     0.435130     0.894899  Biso 1.000000     C
    C   1.0     0.339078     0.387007     0.897455  Biso 1.000000     C
    C   1.0     0.839236     0.386277     0.897417  Biso 1.000000     C
    C   1.0     0.469271     0.105363     0.541523  Biso 1.000000     C
    C   1.0     0.969080     0.105158     0.541618  Biso 1.000000     C
    C   1.0     0.339055     0.103577     0.491474  Biso 1.000000     C
    C   1.0     0.838898     0.102660     0.491185  Biso 1.000000     C
    C   1.0     0.469121     0.458738     0.564695  Biso 1.000000     C
    C   1.0     0.969161     0.458049     0.564114  Biso 1.000000     C
    C   1.0     0.339158     0.509468     0.612842  Biso 1.000000     C
    C   1.0     0.839173     0.508409     0.612433  Biso 1.000000     C
    C   1.0     0.371765     0.452080     0.000218  Biso 1.000000     C
    C   1.0     0.871898     0.451384     0.000228  Biso 1.000000     C
    C   1.0     0.436460     0.476402     0.000000  Biso 1.000000     C
    C   1.0     0.936532     0.476044     0.000140  Biso 1.000000     C
    C   1.0     0.371975     0.548550     0.548214  Biso 1.000000     C
    C   1.0     0.871925     0.547891     0.548074  Biso 1.000000     C
    C   1.0     0.436569     0.523991     0.523803  Biso 1.000000     C
    C   1.0     0.936551     0.523671     0.523734  Biso 1.000000     C
    C   1.0     0.371891     0.000578     0.451626  Biso 1.000000     C
    C   1.0     0.871854    -0.000169     0.451521  Biso 1.000000     C
    C   1.0     0.436531     0.000342     0.476144  Biso 1.000000     C
    C   1.0     0.936516    -0.000042     0.476094  Biso 1.000000     C
    C   1.0     0.128125     0.548711     0.999809  Biso 1.000000     C
    C   1.0     0.628264     0.548003    -0.000215  Biso 1.000000     C
    C   1.0     0.063496     0.524043    -0.000130  Biso 1.000000     C
    C   1.0     0.563563     0.523695    -0.000125  Biso 1.000000     C
    C   1.0     0.128165     0.000226     0.548506  Biso 1.000000     C
    C   1.0     0.628128    -0.000511     0.548410  Biso 1.000000     C
    C   1.0     0.063504     0.000099     0.523932  Biso 1.000000     C
    C   1.0     0.563489    -0.000273     0.523892  Biso 1.000000     C
    C   1.0     0.128101     0.452205     0.451961  Biso 1.000000     C
    C   1.0     0.628046     0.451540     0.451828  Biso 1.000000     C
    C   1.0     0.063475     0.476423     0.476299  Biso 1.000000     C
    C   1.0     0.563453     0.476096     0.476237  Biso 1.000000     C
    N   1.0     0.312221     0.523811     0.190847  Biso 1.000000     N
    N   1.0     0.812392     0.522802     0.190859  Biso 1.000000     N
    N   1.0     0.312809     0.669874     0.477487  Biso 1.000000     N
    N   1.0     0.812557     0.669404     0.477829  Biso 1.000000     N
    N   1.0     0.312699     0.810521     0.328940  Biso 1.000000     N
    N   1.0     0.812880     0.809464     0.329020  Biso 1.000000     N
    N   1.0     0.187234     0.671166     0.190017  Biso 1.000000     N
    N   1.0     0.687433     0.670445     0.189937  Biso 1.000000     N
    N   1.0     0.187820     0.809917     0.477090  Biso 1.000000     N
    N   1.0     0.687589     0.808920     0.476621  Biso 1.000000     N
    N   1.0     0.187377     0.523223     0.330837  Biso 1.000000     N
    N   1.0     0.687433     0.521925     0.330289  Biso 1.000000     N
    N   1.0     0.187633     0.477290     0.809179  Biso 1.000000     N
    N   1.0     0.687805     0.476278     0.809185  Biso 1.000000     N
    N   1.0     0.187469     0.330701     0.522218  Biso 1.000000     N
    N   1.0     0.687215     0.330212     0.522547  Biso 1.000000     N
    N   1.0     0.187143     0.190622     0.671010  Biso 1.000000     N
    N   1.0     0.687326     0.189573     0.671098  Biso 1.000000     N
    N   1.0     0.312592     0.329634     0.810095  Biso 1.000000     N
    N   1.0     0.812793     0.328924     0.810017  Biso 1.000000     N
    N   1.0     0.312433     0.191174     0.523414  Biso 1.000000     N
    N   1.0     0.812204     0.190168     0.522943  Biso 1.000000     N
    N   1.0     0.312590     0.478175     0.669763  Biso 1.000000     N
    N   1.0     0.812649     0.476866     0.669192  Biso 1.000000     N
   Cd   1.0     0.250036     0.668243     0.332574  Biso 1.000000    Cd
   Cd   1.0     0.750039     0.667306     0.332446  Biso 1.000000    Cd
   Cd   1.0     0.249986     0.332785     0.667594  Biso 1.000000    Cd
   Cd   1.0     0.749991     0.331847     0.667459  Biso 1.000000    Cd
