#======================================================================

# CRYSTAL DATA

#----------------------------------------------------------------------

data_VESTA_phase_1


_pd_phase_name                         MOF
_cell_length_a                         23.71600
_cell_length_b                         14.39800
_cell_length_c                         17.46200
_cell_angle_alpha                      89.92200
_cell_angle_beta                       93.42100
_cell_angle_gamma                      87.60000
_symmetry_space_group_name_H-M         "P 1"
_symmetry_Int_Tables_number            1

loop_
_symmetry_equiv_pos_as_xyz
   "x, y, z"

loop_
   _atom_site_label
   _atom_site_occupancy
   _atom_site_fract_x
   _atom_site_fract_y
   _atom_site_fract_z
   _atom_site_adp_type
   _atom_site_B_iso_or_equiv
   _atom_site_type_symbol
    H   1.0     0.396054     0.541194     0.889203  Biso 1.000000     H
    H   1.0     0.896084     0.552596     0.887025  Biso 1.000000     H
    H   1.0     0.292326     0.734922     0.069341  Biso 1.000000     H
    H   1.0     0.793470     0.724889     0.081598  Biso 1.000000     H
    H   1.0     0.397163     0.731997     0.066370  Biso 1.000000     H
    H   1.0     0.898526     0.722706     0.078035  Biso 1.000000     H
    H   1.0     0.290945     0.533757     0.885359  Biso 1.000000     H
    H   1.0     0.790712     0.546192     0.882564  Biso 1.000000     H
    H   1.0     0.402348     0.461144     0.106301  Biso 1.000000     H
    H   1.0     0.903929     0.454996     0.115020  Biso 1.000000     H
    H   1.0     0.294679     0.260581     0.929466  Biso 1.000000     H
    H   1.0     0.792809     0.282159     0.921003  Biso 1.000000     H
    H   1.0     0.399141     0.268826     0.930202  Biso 1.000000     H
    H   1.0     0.897984     0.289010     0.921999  Biso 1.000000     H
    H   1.0     0.297395     0.463960     0.111841  Biso 1.000000     H
    H   1.0     0.798771     0.457756     0.121892  Biso 1.000000     H
    H   1.0     0.100723     0.915051     0.373549  Biso 1.000000     H
    H   1.0     0.600425     0.915153     0.371569  Biso 1.000000     H
    H   1.0     0.218723     0.810919     0.600741  Biso 1.000000     H
    H   1.0     0.718562     0.808239     0.597791  Biso 1.000000     H
    H   1.0     0.113220     0.816795     0.596775  Biso 1.000000     H
    H   1.0     0.612946     0.815898     0.594395  Biso 1.000000     H
    H   1.0     0.205410     0.911101     0.366274  Biso 1.000000     H
    H   1.0     0.705083     0.909516     0.363642  Biso 1.000000     H
    H   1.0     0.108887     0.035781     0.601699  Biso 1.000000     H
    H   1.0     0.608674     0.032879     0.600240  Biso 1.000000     H
    H   1.0     0.199938     0.248677     0.432499  Biso 1.000000     H
    H   1.0     0.700430     0.245618     0.431731  Biso 1.000000     H
    H   1.0     0.095788     0.239399     0.432926  Biso 1.000000     H
    H   1.0     0.596187     0.237493     0.432280  Biso 1.000000     H
    H   1.0     0.214180     0.032182     0.605706  Biso 1.000000     H
    H   1.0     0.713920     0.028210     0.604111  Biso 1.000000     H
    H   1.0     0.112282     0.398874     0.133074  Biso 1.000000     H
    H   1.0     0.613261     0.370125     0.137639  Biso 1.000000     H
    H   1.0     0.210550     0.327476     0.899225  Biso 1.000000     H
    H   1.0     0.710436     0.369383     0.896997  Biso 1.000000     H
    H   1.0     0.105628     0.327643     0.903412  Biso 1.000000     H
    H   1.0     0.605530     0.365558     0.900502  Biso 1.000000     H
    H   1.0     0.217626     0.397559     0.140443  Biso 1.000000     H
    H   1.0     0.718905     0.371301     0.145098  Biso 1.000000     H
    H   1.0     0.099415     0.593463     0.869008  Biso 1.000000     H
    H   1.0     0.599538     0.626467     0.867387  Biso 1.000000     H
    H   1.0     0.217257     0.656684     0.102449  Biso 1.000000     H
    H   1.0     0.718070     0.631425     0.107729  Biso 1.000000     H
    H   1.0     0.112198     0.649837     0.101358  Biso 1.000000     H
    H   1.0     0.612755     0.627284     0.104501  Biso 1.000000     H
    H   1.0     0.203685     0.600347     0.858859  Biso 1.000000     H
    H   1.0     0.704384     0.631375     0.859658  Biso 1.000000     H
    H   1.0     0.400491     0.083754     0.627469  Biso 1.000000     H
    H   1.0     0.900681     0.081508     0.627022  Biso 1.000000     H
    H   1.0     0.282267     0.191309     0.401562  Biso 1.000000     H
    H   1.0     0.782557     0.186627     0.400280  Biso 1.000000     H
    H   1.0     0.387711     0.185887     0.405346  Biso 1.000000     H
    H   1.0     0.888004     0.181133     0.404220  Biso 1.000000     H
    H   1.0     0.296005     0.088586     0.635348  Biso 1.000000     H
    H   1.0     0.796013     0.085296     0.634420  Biso 1.000000     H
    H   1.0     0.392716     0.965143     0.401846  Biso 1.000000     H
    H   1.0     0.892649     0.961900     0.398645  Biso 1.000000     H
    H   1.0     0.300726     0.749944     0.568058  Biso 1.000000     H
    H   1.0     0.800432     0.748707     0.566314  Biso 1.000000     H
    H   1.0     0.404911     0.757324     0.567149  Biso 1.000000     H
    H   1.0     0.904660     0.757065     0.566346  Biso 1.000000     H
    H   1.0     0.287382     0.969919     0.397893  Biso 1.000000     H
    H   1.0     0.787261     0.966243     0.394007  Biso 1.000000     H
    H   1.0     0.987115     0.598553     0.785732  Biso 1.000000     H
    H   1.0     0.486605     0.598565     0.786145  Biso 1.000000     H
    H   1.0    -0.018600     0.484894     0.556267  Biso 1.000000     H
    H   1.0     0.482052     0.485644     0.556450  Biso 1.000000     H
    H   1.0    -0.002840     0.301764     0.750670  Biso 1.000000     H
    H   1.0     0.502491     0.302312     0.750565  Biso 1.000000     H
    H   1.0    -0.011807     0.647686     0.579523  Biso 1.000000     H
    H   1.0     0.487867     0.648596     0.580048  Biso 1.000000     H
    H   1.0    -0.010545     0.696073     0.667394  Biso 1.000000     H
    H   1.0     0.488708     0.696640     0.668066  Biso 1.000000     H
    H   1.0     0.014160     0.398177     0.215654  Biso 1.000000     H
    H   1.0     0.513775     0.398644     0.214993  Biso 1.000000     H
    H   1.0     0.018592     0.511541     0.445186  Biso 1.000000     H
    H   1.0     0.517943     0.512040     0.444506  Biso 1.000000     H
    H   1.0     0.006455     0.695004     0.250945  Biso 1.000000     H
    H   1.0     0.505390     0.695456     0.250237  Biso 1.000000     H
    H   1.0     0.011960     0.348953     0.421875  Biso 1.000000     H
    H   1.0     0.512455     0.349654     0.421512  Biso 1.000000     H
    H   1.0     0.010757     0.300465     0.333987  Biso 1.000000     H
    H   1.0     0.510329     0.300959     0.333796  Biso 1.000000     H
    H   1.0    -0.016102     0.900856     0.285903  Biso 1.000000     H
    H   1.0     0.482520     0.902617     0.287102  Biso 1.000000     H
    H   1.0    -0.015589     0.013678     0.056182  Biso 1.000000     H
    H   1.0     0.485663     0.012978     0.057021  Biso 1.000000     H
    H   1.0     0.002041     0.194475     0.250115  Biso 1.000000     H
    H   1.0     0.504430     0.195008     0.249901  Biso 1.000000     H
    H   1.0    -0.014143     0.850333     0.079722  Biso 1.000000     H
    H   1.0     0.481276     0.850952     0.080348  Biso 1.000000     H
    H   1.0    -0.012810     0.802140     0.167847  Biso 1.000000     H
    H   1.0     0.485209     0.802617     0.168817  Biso 1.000000     H
    H   1.0     0.017140     0.095730     0.714362  Biso 1.000000     H
    H   1.0     0.489471     0.097376     0.711240  Biso 1.000000     H
    H   1.0     0.020006     0.982180     0.944200  Biso 1.000000     H
    H   1.0     0.478608     0.983614     0.938918  Biso 1.000000     H
    H   1.0     0.004365     0.800891     0.750337  Biso 1.000000     H
    H   1.0     0.508690     0.801406     0.750533  Biso 1.000000     H
    H   1.0     0.018394     0.146282     0.920984  Biso 1.000000     H
    H   1.0     0.480870     0.147038     0.916551  Biso 1.000000     H
    H   1.0     0.017308     0.194513     0.832351  Biso 1.000000     H
    H   1.0     0.484965     0.195467     0.829119  Biso 1.000000     H
    C   1.0     0.370972     0.582849     0.927853  Biso 1.000000     C
    C   1.0     0.871249     0.589778     0.928694  Biso 1.000000     C
    C   1.0     0.313317     0.689415     0.029100  Biso 1.000000     C
    C   1.0     0.814306     0.684405     0.037938  Biso 1.000000     C
    C   1.0     0.371893     0.688703     0.027524  Biso 1.000000     C
    C   1.0     0.872882     0.684036     0.036107  Biso 1.000000     C
    C   1.0     0.282089     0.633174     0.978042  Biso 1.000000     C
    C   1.0     0.782767     0.634633     0.982491  Biso 1.000000     C
    C   1.0     0.312402     0.579889     0.925839  Biso 1.000000     C
    C   1.0     0.812660     0.587163     0.926503  Biso 1.000000     C
    C   1.0     0.376412     0.418157     0.068167  Biso 1.000000     C
    C   1.0     0.877274     0.418041     0.073242  Biso 1.000000     C
    C   1.0     0.316303     0.307750     0.968883  Biso 1.000000     C
    C   1.0     0.815434     0.322940     0.964429  Biso 1.000000     C
    C   1.0     0.374819     0.311376     0.969241  Biso 1.000000     C
    C   1.0     0.873956     0.325700     0.964851  Biso 1.000000     C
    C   1.0     0.286236     0.362809     0.020271  Biso 1.000000     C
    C   1.0     0.786399     0.370578     0.021218  Biso 1.000000     C
    C   1.0     0.317957     0.418458     0.071210  Biso 1.000000     C
    C   1.0     0.818833     0.418467     0.076894  Biso 1.000000     C
    C   1.0     0.128742     0.892766     0.422549  Biso 1.000000     C
    C   1.0     0.628494     0.892181     0.420313  Biso 1.000000     C
    C   1.0     0.194553     0.833598     0.548560  Biso 1.000000     C
    C   1.0     0.694353     0.831483     0.545806  Biso 1.000000     C
    C   1.0     0.135846     0.837350     0.547245  Biso 1.000000     C
    C   1.0     0.635672     0.836120     0.544851  Biso 1.000000     C
    C   1.0     0.221812     0.861161     0.483521  Biso 1.000000     C
    C   1.0     0.721583     0.859033     0.480737  Biso 1.000000     C
    C   1.0     0.187217     0.890817     0.419292  Biso 1.000000     C
    C   1.0     0.686950     0.889300     0.416719  Biso 1.000000     C
    C   1.0     0.131278     0.081093     0.564933  Biso 1.000000     C
    C   1.0     0.631142     0.078199     0.563564  Biso 1.000000     C
    C   1.0     0.182099     0.198651     0.470094  Biso 1.000000     C
    C   1.0     0.682400     0.195593     0.469141  Biso 1.000000     C
    C   1.0     0.123622     0.194602     0.470470  Biso 1.000000     C
    C   1.0     0.623884     0.192182     0.469581  Biso 1.000000     C
    C   1.0     0.216934     0.140057     0.518754  Biso 1.000000     C
    C   1.0     0.717059     0.136475     0.517588  Biso 1.000000     C
    C   1.0     0.189934     0.080503     0.567265  Biso 1.000000     C
    C   1.0     0.689824     0.076973     0.565891  Biso 1.000000     C
    C   1.0     0.136068     0.383296     0.082739  Biso 1.000000     C
    C   1.0     0.636836     0.370545     0.085880  Biso 1.000000     C
    C   1.0     0.190953     0.342688     0.952896  Biso 1.000000     C
    C   1.0     0.690958     0.368802     0.951931  Biso 1.000000     C
    C   1.0     0.132401     0.343606     0.954271  Biso 1.000000     C
    C   1.0     0.632487     0.367866     0.953216  Biso 1.000000     C
    C   1.0     0.223820     0.362794     0.019914  Biso 1.000000     C
    C   1.0     0.724077     0.370476     0.021199  Biso 1.000000     C
    C   1.0     0.194789     0.383169     0.086064  Biso 1.000000     C
    C   1.0     0.695571     0.371614     0.089412  Biso 1.000000     C
    C   1.0     0.127452     0.606509     0.919296  Biso 1.000000     C
    C   1.0     0.627789     0.626229     0.919016  Biso 1.000000     C
    C   1.0     0.193015     0.643096     0.048965  Biso 1.000000     C
    C   1.0     0.693646     0.630688     0.052878  Biso 1.000000     C
    C   1.0     0.134617     0.638381     0.049185  Biso 1.000000     C
    C   1.0     0.635093     0.627364     0.051682  Biso 1.000000     C
    C   1.0     0.220013     0.628952     0.980264  Biso 1.000000     C
    C   1.0     0.720590     0.631480     0.983488  Biso 1.000000     C
    C   1.0     0.185615     0.610168     0.914329  Biso 1.000000     C
    C   1.0     0.686115     0.628974     0.915384  Biso 1.000000     C
    C   1.0     0.372466     0.107382     0.578908  Biso 1.000000     C
    C   1.0     0.872612     0.104122     0.578170  Biso 1.000000     C
    C   1.0     0.306480     0.168141     0.453562  Biso 1.000000     C
    C   1.0     0.806726     0.163768     0.452405  Biso 1.000000     C
    C   1.0     0.365176     0.164621     0.454748  Biso 1.000000     C
    C   1.0     0.865430     0.160233     0.453698  Biso 1.000000     C
    C   1.0     0.279316     0.139771     0.518457  Biso 1.000000     C
    C   1.0     0.779476     0.135819     0.517349  Biso 1.000000     C
    C   1.0     0.314019     0.109512     0.582386  Biso 1.000000     C
    C   1.0     0.814137     0.105938     0.581453  Biso 1.000000     C
    C   1.0     0.370135     0.919204     0.437854  Biso 1.000000     C
    C   1.0     0.869971     0.916491     0.434986  Biso 1.000000     C
    C   1.0     0.318801     0.800401     0.531082  Biso 1.000000     C
    C   1.0     0.818530     0.798780     0.529016  Biso 1.000000     C
    C   1.0     0.377322     0.803517     0.530478  Biso 1.000000     C
    C   1.0     0.877049     0.802339     0.528906  Biso 1.000000     C
    C   1.0     0.284212     0.860351     0.483278  Biso 1.000000     C
    C   1.0     0.783985     0.857965     0.480482  Biso 1.000000     C
    C   1.0     0.311461     0.920538     0.435583  Biso 1.000000     C
    C   1.0     0.811294     0.917511     0.432324  Biso 1.000000     C
    C   1.0    -0.003188     0.430165     0.861666  Biso 1.000000     C
    C   1.0     0.498307     0.429915     0.861634  Biso 1.000000     C
    C   1.0    -0.007614     0.448481     0.777058  Biso 1.000000     C
    C   1.0     0.494351     0.448680     0.777137  Biso 1.000000     C
    C   1.0    -0.010093     0.385368     0.648434  Biso 1.000000     C
    C   1.0     0.492591     0.385982     0.648434  Biso 1.000000     C
    C   1.0    -0.016829     0.553612     0.666779  Biso 1.000000     C
    C   1.0     0.483708     0.554032     0.667087  Biso 1.000000     C
    C   1.0    -0.007473     0.302117     0.597027  Biso 1.000000     C
    C   1.0     0.495158     0.302780     0.596999  Biso 1.000000     C
    C   1.0    -0.012646     0.539140     0.746961  Biso 1.000000     C
    C   1.0     0.487937     0.539341     0.747231  Biso 1.000000     C
    C   1.0    -0.015463     0.475367     0.618301  Biso 1.000000     C
    C   1.0     0.485800     0.475965     0.618459  Biso 1.000000     C
    C   1.0    -0.006505     0.371925     0.727818  Biso 1.000000     C
    C   1.0     0.496937     0.372372     0.727781  Biso 1.000000     C
    C   1.0     0.006815     0.566400     0.139903  Biso 1.000000     C
    C   1.0     0.506143     0.566863     0.139137  Biso 1.000000     C
    C   1.0     0.010241     0.548264     0.224510  Biso 1.000000     C
    C   1.0     0.509435     0.548701     0.223786  Biso 1.000000     C
    C   1.0     0.011756     0.611182     0.353104  Biso 1.000000     C
    C   1.0     0.510771     0.611703     0.352452  Biso 1.000000     C
    C   1.0     0.000000     0.442921     0.334662  Biso 1.000000     C
    C   1.0     0.517215     0.443437     0.333999  Biso 1.000000     C
    C   1.0     0.008805     0.694222     0.404673  Biso 1.000000     C
    C   1.0     0.507657     0.694628     0.404228  Biso 1.000000     C
    C   1.0     0.000000     0.457519     0.254509  Biso 1.000000     C
    C   1.0     0.513561     0.457991     0.253836  Biso 1.000000     C
    C   1.0     0.016232     0.521125     0.383164  Biso 1.000000     C
    C   1.0     0.515546     0.521638     0.382485  Biso 1.000000     C
    C   1.0     0.009299     0.624800     0.273756  Biso 1.000000     C
    C   1.0     0.508329     0.625267     0.273073  Biso 1.000000     C
    C   1.0    -0.006284     0.067622     0.361291  Biso 1.000000     C
    C   1.0     0.493871     0.069665     0.361493  Biso 1.000000     C
    C   1.0    -0.007540     0.049437     0.276815  Biso 1.000000     C
    C   1.0     0.493054     0.050642     0.277243  Biso 1.000000     C
    C   1.0    -0.005619     0.111796     0.148079  Biso 1.000000     C
    C   1.0     0.496093     0.111653     0.148317  Biso 1.000000     C
    C   1.0    -0.016851     0.945414     0.166810  Biso 1.000000     C
    C   1.0     0.482589     0.946003     0.167835  Biso 1.000000     C
    C   1.0    -0.000575     0.193786     0.096143  Biso 1.000000     C
    C   1.0     0.501633     0.193030     0.095977  Biso 1.000000     C
    C   1.0    -0.013783     0.959723     0.246941  Biso 1.000000     C
    C   1.0     0.485790     0.960956     0.247887  Biso 1.000000     C
    C   1.0    -0.012972     0.022917     0.118181  Biso 1.000000     C
    C   1.0     0.487757     0.022817     0.118912  Biso 1.000000     C
    C   1.0    -0.003175     0.125135     0.227415  Biso 1.000000     C
    C   1.0     0.498497     0.125688     0.227537  Biso 1.000000     C
    C   1.0     0.008143     0.928744     0.639004  Biso 1.000000     C
    C   1.0     0.504309     0.929280     0.638385  Biso 1.000000     C
    C   1.0     0.010733     0.946688     0.723520  Biso 1.000000     C
    C   1.0     0.498728     0.947579     0.721973  Biso 1.000000     C
    C   1.0     0.011177     0.883820     0.852326  Biso 1.000000     C
    C   1.0     0.493990     0.884655     0.849963  Biso 1.000000     C
    C   1.0     0.019957     0.050801     0.833524  Biso 1.000000     C
    C   1.0     0.482627     0.052491     0.829037  Biso 1.000000     C
    C   1.0     0.007527     0.801534     0.904275  Biso 1.000000     C
    C   1.0     0.496448     0.801988     0.902490  Biso 1.000000     C
    C   1.0     0.016056     0.036597     0.753327  Biso 1.000000     C
    C   1.0     0.489966     0.037985     0.750208  Biso 1.000000     C
    C   1.0     0.017206     0.972975     0.882200  Biso 1.000000     C
    C   1.0     0.484437     0.974307     0.877996  Biso 1.000000     C
    C   1.0     0.008401     0.870498     0.772980  Biso 1.000000     C
    C   1.0     0.501191     0.871223     0.771900  Biso 1.000000     C
    N   1.0     0.400514     0.635352     0.978360  Biso 1.000000     N
    N   1.0     0.901101     0.636762     0.982797  Biso 1.000000     N
    N   1.0     0.404573     0.366341     0.017626  Biso 1.000000     N
    N   1.0     0.904501     0.373063     0.017921  Biso 1.000000     N
    N   1.0     0.103261     0.867129     0.485597  Biso 1.000000     N
    N   1.0     0.603093     0.866805     0.483494  Biso 1.000000     N
    N   1.0     0.098432     0.136302     0.516886  Biso 1.000000     N
    N   1.0     0.598454     0.133970     0.515800  Biso 1.000000     N
    N   1.0     0.105134     0.364182     0.017956  Biso 1.000000     N
    N   1.0     0.605609     0.368839     0.018952  Biso 1.000000     N
    N   1.0     0.102158     0.620061     0.985599  Biso 1.000000     N
    N   1.0     0.602473     0.625007     0.986020  Biso 1.000000     N
    N   1.0     0.397841     0.133970     0.516042  Biso 1.000000     N
    N   1.0     0.898053     0.130233     0.515230  Biso 1.000000     N
    N   1.0     0.402790     0.862406     0.484873  Biso 1.000000     N
    N   1.0     0.902546     0.860761     0.482943  Biso 1.000000     N
    N   1.0    -0.024232     0.641963     0.634608  Biso 1.000000     N
    N   1.0     0.475430     0.642422     0.635085  Biso 1.000000     N
    N   1.0     0.024460     0.354526     0.366819  Biso 1.000000     N
    N   1.0     0.524460     0.355094     0.366203  Biso 1.000000     N
    N   1.0    -0.025869     0.858505     0.135023  Biso 1.000000     N
    N   1.0     0.472035     0.859411     0.136612  Biso 1.000000     N
    N   1.0     0.028649     0.137471     0.865162  Biso 1.000000     N
    N   1.0     0.471538     0.140307     0.858738  Biso 1.000000     N
    O   1.0    -0.005039     0.496624     0.909808  Biso 1.000000     O
    O   1.0     0.496157     0.496134     0.910038  Biso 1.000000     O
    O   1.0     0.002125     0.345100     0.883944  Biso 1.000000     O
    O   1.0     0.503657     0.344817     0.883721  Biso 1.000000     O
    O   1.0    -0.005018     0.221601     0.629061  Biso 1.000000     O
    O   1.0     0.498515     0.222280     0.629109  Biso 1.000000     O
    O   1.0    -0.007573     0.312555     0.524618  Biso 1.000000     O
    O   1.0     0.493729     0.313107     0.524497  Biso 1.000000     O
    O   1.0     0.005365     0.499540     0.092104  Biso 1.000000     O
    O   1.0     0.503536     0.500300     0.090993  Biso 1.000000     O
    O   1.0     0.005454     0.651362     0.117323  Biso 1.000000     O
    O   1.0     0.506185     0.651763     0.116721  Biso 1.000000     O
    O   1.0     0.007408     0.774871     0.372905  Biso 1.000000     O
    O   1.0     0.506189     0.775401     0.372606  Biso 1.000000     O
    O   1.0     0.007524     0.683545     0.476845  Biso 1.000000     O
    O   1.0     0.506450     0.683721     0.476391  Biso 1.000000     O
    O   1.0    -0.007409     0.001054     0.409640  Biso 1.000000     O
    O   1.0     0.493745     0.003428     0.410349  Biso 1.000000     O
    O   1.0    -0.005131     0.152412     0.383395  Biso 1.000000     O
    O   1.0     0.493815     0.154679     0.383110  Biso 1.000000     O
    O   1.0     0.007781     0.272981     0.127914  Biso 1.000000     O
    O   1.0     0.513644     0.271247     0.127176  Biso 1.000000     O
    O   1.0    -0.005155     0.183986     0.023708  Biso 1.000000     O
    O   1.0     0.493759     0.183917     0.023805  Biso 1.000000     O
    O   1.0     0.007516     0.995461     0.590478  Biso 1.000000     O
    O   1.0     0.501360     0.995865     0.589631  Biso 1.000000     O
    O   1.0     0.007512     0.843920     0.616846  Biso 1.000000     O
    O   1.0     0.511093     0.844556     0.617074  Biso 1.000000     O
    O   1.0     0.004876     0.720941     0.872838  Biso 1.000000     O
    O   1.0     0.506100     0.721615     0.872723  Biso 1.000000     O
    O   1.0     0.007272     0.812365     0.976497  Biso 1.000000     O
    O   1.0     0.488918     0.812325     0.973453  Biso 1.000000     O
   Cd   1.0     0.001590     0.636617     0.985088  Biso 1.000000    Cd
   Cd   1.0     0.501129     0.636202     0.984451  Biso 1.000000    Cd
   Cd   1.0     0.005041     0.360069     0.016622  Biso 1.000000    Cd
   Cd   1.0     0.505269     0.359601     0.016250  Biso 1.000000    Cd
   Cd   1.0     0.002862     0.860600     0.484416  Biso 1.000000    Cd
   Cd   1.0     0.502926     0.861285     0.484044  Biso 1.000000    Cd
   Cd   1.0    -0.001663     0.136493     0.516277  Biso 1.000000    Cd
   Cd   1.0     0.498044     0.137262     0.516116  Biso 1.000000    Cd
