#======================================================================

# CRYSTAL DATA

#----------------------------------------------------------------------

data_VESTA_phase_1


_pd_phase_name                         MOF
_cell_length_a                         23.67900
_cell_length_b                         14.30400
_cell_length_c                         17.53200
_cell_angle_alpha                      89.97200
_cell_angle_beta                       90.00400
_cell_angle_gamma                      90.00600
_symmetry_space_group_name_H-M         "P 1"
_symmetry_Int_Tables_number            1

loop_
_symmetry_equiv_pos_as_xyz
   "x, y, z"

loop_
   _atom_site_label
   _atom_site_occupancy
   _atom_site_fract_x
   _atom_site_fract_y
   _atom_site_fract_z
   _atom_site_adp_type
   _atom_site_B_iso_or_equiv
   _atom_site_type_symbol
    H   1.0     0.110420     0.634998     0.133958  Biso 1.000000     H
    H   1.0     0.610435     0.635603     0.133461  Biso 1.000000     H
    H   1.0     0.114699     0.626023     0.898239  Biso 1.000000     H
    H   1.0     0.614752     0.625839     0.897764  Biso 1.000000     H
    H   1.0     0.220115     0.625183     0.896295  Biso 1.000000     H
    H   1.0     0.720159     0.625008     0.895849  Biso 1.000000     H
    H   1.0     0.215957     0.635522     0.142745  Biso 1.000000     H
    H   1.0     0.715984     0.635917     0.142282  Biso 1.000000     H
    H   1.0     0.495526     0.302958     0.249515  Biso 1.000000     H
    H   1.0     0.996051     0.302713     0.249477  Biso 1.000000     H
    H   1.0     0.403961     0.715863     0.923902  Biso 1.000000     H
    H   1.0     0.903915     0.716184     0.923368  Biso 1.000000     H
    H   1.0     0.298677     0.721096     0.921410  Biso 1.000000     H
    H   1.0     0.798615     0.721199     0.920872  Biso 1.000000     H
    H   1.0     0.299290     0.543446     0.121152  Biso 1.000000     H
    H   1.0     0.799345     0.543833     0.120778  Biso 1.000000     H
    H   1.0     0.404817     0.546572     0.115547  Biso 1.000000     H
    H   1.0     0.904906     0.547113     0.115128  Biso 1.000000     H
    H   1.0     0.014263     0.485129     0.441550  Biso 1.000000     H
    H   1.0     0.514527     0.485276     0.441514  Biso 1.000000     H
    H   1.0     0.017779     0.598956     0.213030  Biso 1.000000     H
    H   1.0     0.517955     0.599037     0.212977  Biso 1.000000     H
    H   1.0     0.014088     0.698186     0.332590  Biso 1.000000     H
    H   1.0     0.513892     0.698265     0.332599  Biso 1.000000     H
    H   1.0     0.017995     0.648311     0.419473  Biso 1.000000     H
    H   1.0     0.517810     0.648399     0.419405  Biso 1.000000     H
    H   1.0     0.110415     0.365054     0.866020  Biso 1.000000     H
    H   1.0     0.610440     0.364390     0.866535  Biso 1.000000     H
    H   1.0     0.114727     0.373979     0.101741  Biso 1.000000     H
    H   1.0     0.614767     0.374189     0.102232  Biso 1.000000     H
    H   1.0     0.220143     0.374814     0.103689  Biso 1.000000     H
    H   1.0     0.720177     0.375003     0.104171  Biso 1.000000     H
    H   1.0     0.215950     0.364527     0.857238  Biso 1.000000     H
    H   1.0     0.715989     0.364072     0.857738  Biso 1.000000     H
    H   1.0     0.496031     0.697161     0.750615  Biso 1.000000     H
    H   1.0     0.996024     0.697291     0.750503  Biso 1.000000     H
    H   1.0     0.403976     0.284133     0.076078  Biso 1.000000     H
    H   1.0     0.903938     0.283787     0.076627  Biso 1.000000     H
    H   1.0     0.298693     0.278902     0.078571  Biso 1.000000     H
    H   1.0     0.798638     0.278780     0.079146  Biso 1.000000     H
    H   1.0     0.299299     0.456543     0.878825  Biso 1.000000     H
    H   1.0     0.799341     0.456153     0.879244  Biso 1.000000     H
    H   1.0     0.404826     0.453405     0.884423  Biso 1.000000     H
    H   1.0     0.904902     0.452869     0.884875  Biso 1.000000     H
    H   1.0     0.014262     0.514890     0.558432  Biso 1.000000     H
    H   1.0     0.514093     0.514862     0.558457  Biso 1.000000     H
    H   1.0     0.017777     0.401060     0.786950  Biso 1.000000     H
    H   1.0     0.517921     0.400944     0.786944  Biso 1.000000     H
    H   1.0     0.014080     0.301831     0.667391  Biso 1.000000     H
    H   1.0     0.513975     0.301802     0.667305  Biso 1.000000     H
    H   1.0     0.017992     0.351707     0.580508  Biso 1.000000     H
    H   1.0     0.518189     0.351718     0.580471  Biso 1.000000     H
    H   1.0     0.389109     0.865048     0.634092  Biso 1.000000     H
    H   1.0     0.889094     0.864721     0.633876  Biso 1.000000     H
    H   1.0     0.384855     0.874021     0.398375  Biso 1.000000     H
    H   1.0     0.884803     0.874692     0.398181  Biso 1.000000     H
    H   1.0     0.279423     0.874857     0.396394  Biso 1.000000     H
    H   1.0     0.779395     0.875184     0.396215  Biso 1.000000     H
    H   1.0     0.283570     0.864465     0.642830  Biso 1.000000     H
    H   1.0     0.783555     0.864232     0.642635  Biso 1.000000     H
    H   1.0     0.003184     0.197995     0.750032  Biso 1.000000     H
    H   1.0     0.502929     0.197987     0.749958  Biso 1.000000     H
    H   1.0     0.095490     0.783810     0.424552  Biso 1.000000     H
    H   1.0     0.595494     0.783685     0.424309  Biso 1.000000     H
    H   1.0     0.200773     0.778591     0.421864  Biso 1.000000     H
    H   1.0     0.700767     0.778626     0.421631  Biso 1.000000     H
    H   1.0     0.200389     0.957052     0.620966  Biso 1.000000     H
    H   1.0     0.700292     0.956928     0.620828  Biso 1.000000     H
    H   1.0     0.094825     0.954214     0.615367  Biso 1.000000     H
    H   1.0     0.594740     0.953928     0.615255  Biso 1.000000     H
    H   1.0     0.486312     0.013724     0.941311  Biso 1.000000     H
    H   1.0     0.986494     0.013692     0.941331  Biso 1.000000     H
    H   1.0     0.481595     0.901876     0.712335  Biso 1.000000     H
    H   1.0     0.982267     0.901808     0.712335  Biso 1.000000     H
    H   1.0     0.485586     0.801703     0.831232  Biso 1.000000     H
    H   1.0     0.986202     0.801702     0.831320  Biso 1.000000     H
    H   1.0     0.482394     0.850890     0.918478  Biso 1.000000     H
    H   1.0     0.982838     0.850931     0.918493  Biso 1.000000     H
    H   1.0     0.388961     0.135387     0.365866  Biso 1.000000     H
    H   1.0     0.889054     0.135304     0.366130  Biso 1.000000     H
    H   1.0     0.384749     0.125113     0.601545  Biso 1.000000     H
    H   1.0     0.884814     0.125363     0.601827  Biso 1.000000     H
    H   1.0     0.279331     0.124717     0.603566  Biso 1.000000     H
    H   1.0     0.779403     0.124905     0.603814  Biso 1.000000     H
    H   1.0     0.283415     0.135801     0.357150  Biso 1.000000     H
    H   1.0     0.783513     0.135814     0.357393  Biso 1.000000     H
    H   1.0     0.003177     0.802008     0.249969  Biso 1.000000     H
    H   1.0     0.503339     0.802047     0.250016  Biso 1.000000     H
    H   1.0     0.095429     0.216213     0.575462  Biso 1.000000     H
    H   1.0     0.595456     0.216344     0.575648  Biso 1.000000     H
    H   1.0     0.200723     0.221372     0.578150  Biso 1.000000     H
    H   1.0     0.700728     0.221476     0.578375  Biso 1.000000     H
    H   1.0     0.200254     0.042981     0.379009  Biso 1.000000     H
    H   1.0     0.700298     0.043039     0.379261  Biso 1.000000     H
    H   1.0     0.094683     0.045850     0.384624  Biso 1.000000     H
    H   1.0     0.594715     0.045707     0.384990  Biso 1.000000     H
    H   1.0     0.486151     0.986244     0.058728  Biso 1.000000     H
    H   1.0     0.986504     0.986305     0.058662  Biso 1.000000     H
    H   1.0     0.482168     0.098180     0.287717  Biso 1.000000     H
    H   1.0     0.982264     0.098190     0.287656  Biso 1.000000     H
    H   1.0     0.485690     0.198326     0.168715  Biso 1.000000     H
    H   1.0     0.986212     0.198294     0.168675  Biso 1.000000     H
    H   1.0     0.482328     0.149046     0.081526  Biso 1.000000     H
    H   1.0     0.982853     0.149068     0.081499  Biso 1.000000     H
    C   1.0     0.136729     0.632004     0.082959  Biso 1.000000     C
    C   1.0     0.636759     0.632418     0.082488  Biso 1.000000     C
    C   1.0     0.139004     0.627577     0.951054  Biso 1.000000     C
    C   1.0     0.639040     0.627622     0.950587  Biso 1.000000     C
    C   1.0     0.197674     0.627997     0.950496  Biso 1.000000     C
    C   1.0     0.697709     0.627994     0.950035  Biso 1.000000     C
    C   1.0     0.195387     0.632025     0.087216  Biso 1.000000     C
    C   1.0     0.695415     0.632346     0.086755  Biso 1.000000     C
    C   1.0     0.227313     0.630397     0.019795  Biso 1.000000     C
    C   1.0     0.727337     0.630564     0.019337  Biso 1.000000     C
    C   1.0     0.007065     0.430891     0.138479  Biso 1.000000     C
    C   1.0     0.506957     0.430975     0.138469  Biso 1.000000     C
    C   1.0     0.289705     0.631366     0.020790  Biso 1.000000     C
    C   1.0     0.789721     0.631591     0.020329  Biso 1.000000     C
    C   1.0     0.501480     0.372903     0.271838  Biso 1.000000     C
    C   1.0     0.000000     0.372697     0.271816  Biso 1.000000     C
    C   1.0     0.378967     0.677998     0.966105  Biso 1.000000     C
    C   1.0     0.878945     0.678291     0.965589  Biso 1.000000     C
    C   1.0     0.320287     0.680043     0.964879  Biso 1.000000     C
    C   1.0     0.820264     0.680240     0.964363  Biso 1.000000     C
    C   1.0     0.497725     0.303789     0.402711  Biso 1.000000     C
    C   1.0     0.997682     0.303546     0.402638  Biso 1.000000     C
    C   1.0     0.320626     0.583267     0.076682  Biso 1.000000     C
    C   1.0     0.820662     0.583623     0.076272  Biso 1.000000     C
    C   1.0     0.379315     0.584050     0.073734  Biso 1.000000     C
    C   1.0     0.879347     0.584492     0.073318  Biso 1.000000     C
    C   1.0     0.503855     0.386347     0.350651  Biso 1.000000     C
    C   1.0     0.000000     0.386143     0.350640  Biso 1.000000     C
    C   1.0     0.012270     0.475774     0.379995  Biso 1.000000     C
    C   1.0     0.512360     0.475944     0.379967  Biso 1.000000     C
    C   1.0     0.014568     0.539619     0.251933  Biso 1.000000     C
    C   1.0     0.514596     0.539744     0.251901  Biso 1.000000     C
    C   1.0     0.017495     0.554001     0.331536  Biso 1.000000     C
    C   1.0     0.517524     0.554156     0.331497  Biso 1.000000     C
    C   1.0     0.007436     0.449148     0.222513  Biso 1.000000     C
    C   1.0     0.507271     0.449293     0.222504  Biso 1.000000     C
    C   1.0     0.136727     0.368036     0.917022  Biso 1.000000     C
    C   1.0     0.636763     0.367580     0.917514  Biso 1.000000     C
    C   1.0     0.139027     0.372435     0.048927  Biso 1.000000     C
    C   1.0     0.639058     0.372393     0.049416  Biso 1.000000     C
    C   1.0     0.197698     0.372010     0.049487  Biso 1.000000     C
    C   1.0     0.697727     0.372014     0.049980  Biso 1.000000     C
    C   1.0     0.195385     0.368012     0.912766  Biso 1.000000     C
    C   1.0     0.695419     0.367650     0.913259  Biso 1.000000     C
    C   1.0     0.227318     0.369619     0.980188  Biso 1.000000     C
    C   1.0     0.727341     0.369431     0.980683  Biso 1.000000     C
    C   1.0     0.007054     0.569115     0.861502  Biso 1.000000     C
    C   1.0     0.507010     0.569010     0.861561  Biso 1.000000     C
    C   1.0     0.289710     0.368633     0.979191  Biso 1.000000     C
    C   1.0     0.789725     0.368394     0.979692  Biso 1.000000     C
    C   1.0     0.501747     0.627187     0.728259  Biso 1.000000     C
    C   1.0     0.000000     0.627312     0.728164  Biso 1.000000     C
    C   1.0     0.378983     0.321991     0.033871  Biso 1.000000     C
    C   1.0     0.878964     0.321686     0.034414  Biso 1.000000     C
    C   1.0     0.320303     0.319953     0.035101  Biso 1.000000     C
    C   1.0     0.820283     0.319742     0.035652  Biso 1.000000     C
    C   1.0     0.497648     0.696592     0.597608  Biso 1.000000     C
    C   1.0     0.997683     0.696465     0.597337  Biso 1.000000     C
    C   1.0     0.320634     0.416723     0.923296  Biso 1.000000     C
    C   1.0     0.820662     0.416364     0.923746  Biso 1.000000     C
    C   1.0     0.379323     0.415933     0.926241  Biso 1.000000     C
    C   1.0     0.879347     0.415491     0.926689  Biso 1.000000     C
    C   1.0     0.503894     0.613824     0.649433  Biso 1.000000     C
    C   1.0     0.000000     0.613868     0.649340  Biso 1.000000     C
    C   1.0     0.012262     0.524242     0.619986  Biso 1.000000     C
    C   1.0     0.512174     0.524205     0.620020  Biso 1.000000     C
    C   1.0     0.014559     0.460396     0.748047  Biso 1.000000     C
    C   1.0     0.514594     0.460294     0.748071  Biso 1.000000     C
    C   1.0     0.017487     0.446016     0.668445  Biso 1.000000     C
    C   1.0     0.517482     0.445963     0.668458  Biso 1.000000     C
    C   1.0     0.007422     0.550863     0.777467  Biso 1.000000     C
    C   1.0     0.507386     0.550726     0.777531  Biso 1.000000     C
    C   1.0     0.362807     0.868070     0.583083  Biso 1.000000     C
    C   1.0     0.862788     0.867993     0.582883  Biso 1.000000     C
    C   1.0     0.360539     0.872506     0.451178  Biso 1.000000     C
    C   1.0     0.860512     0.872875     0.450997  Biso 1.000000     C
    C   1.0     0.301866     0.872053     0.450601  Biso 1.000000     C
    C   1.0     0.801837     0.872298     0.450420  Biso 1.000000     C
    C   1.0     0.304152     0.868001     0.587312  Biso 1.000000     C
    C   1.0     0.804130     0.867912     0.587118  Biso 1.000000     C
    C   1.0     0.272234     0.869632     0.519880  Biso 1.000000     C
    C   1.0     0.772203     0.869673     0.519695  Biso 1.000000     C
    C   1.0     0.491902     0.070596     0.638419  Biso 1.000000     C
    C   1.0     0.992771     0.070572     0.638450  Biso 1.000000     C
    C   1.0     0.209848     0.868710     0.520908  Biso 1.000000     C
    C   1.0     0.709807     0.868677     0.520723  Biso 1.000000     C
    C   1.0    -0.002188     0.127749     0.772059  Biso 1.000000     C
    C   1.0     0.497499     0.127763     0.772006  Biso 1.000000     C
    C   1.0     0.120531     0.821936     0.466522  Biso 1.000000     C
    C   1.0     0.620500     0.821849     0.466301  Biso 1.000000     C
    C   1.0     0.179208     0.819841     0.465212  Biso 1.000000     C
    C   1.0     0.679183     0.819822     0.464998  Biso 1.000000     C
    C   1.0     0.002271     0.195741     0.903262  Biso 1.000000     C
    C   1.0     0.502238     0.195710     0.903217  Biso 1.000000     C
    C   1.0     0.178995     0.917091     0.576658  Biso 1.000000     C
    C   1.0     0.678921     0.916974     0.576496  Biso 1.000000     C
    C   1.0     0.120307     0.916435     0.573748  Biso 1.000000     C
    C   1.0     0.620230     0.916239     0.573587  Biso 1.000000     C
    C   1.0    -0.003983     0.113589     0.850846  Biso 1.000000     C
    C   1.0     0.495857     0.113591     0.850794  Biso 1.000000     C
    C   1.0     0.487868     0.023674     0.879788  Biso 1.000000     C
    C   1.0     0.988108     0.023648     0.879812  Biso 1.000000     C
    C   1.0     0.484906     0.960947     0.751434  Biso 1.000000     C
    C   1.0     0.985483     0.960889     0.751446  Biso 1.000000     C
    C   1.0     0.482379     0.945889     0.830983  Biso 1.000000     C
    C   1.0     0.982781     0.945849     0.830988  Biso 1.000000     C
    C   1.0     0.491779     0.051696     0.722375  Biso 1.000000     C
    C   1.0     0.992366     0.051653     0.722406  Biso 1.000000     C
    C   1.0     0.362672     0.131983     0.416861  Biso 1.000000     C
    C   1.0     0.862758     0.132051     0.417128  Biso 1.000000     C
    C   1.0     0.360433     0.126968     0.548752  Biso 1.000000     C
    C   1.0     0.860510     0.127186     0.549017  Biso 1.000000     C
    C   1.0     0.301762     0.127609     0.549357  Biso 1.000000     C
    C   1.0     0.801836     0.127786     0.549606  Biso 1.000000     C
    C   1.0     0.304016     0.132074     0.412651  Biso 1.000000     C
    C   1.0     0.804100     0.132151     0.412907  Biso 1.000000     C
    C   1.0     0.272121     0.130285     0.480090  Biso 1.000000     C
    C   1.0     0.772187     0.130408     0.480337  Biso 1.000000     C
    C   1.0     0.492776     0.929425     0.361583  Biso 1.000000     C
    C   1.0     0.992766     0.929431     0.361544  Biso 1.000000     C
    C   1.0     0.209741     0.131287     0.479079  Biso 1.000000     C
    C   1.0     0.709791     0.131366     0.479323  Biso 1.000000     C
    C   1.0    -0.002194     0.872251     0.227937  Biso 1.000000     C
    C   1.0     0.497865     0.872269     0.227987  Biso 1.000000     C
    C   1.0     0.120457     0.178090     0.533486  Biso 1.000000     C
    C   1.0     0.620474     0.178129     0.533718  Biso 1.000000     C
    C   1.0     0.179133     0.180155     0.534792  Biso 1.000000     C
    C   1.0     0.679156     0.180220     0.535026  Biso 1.000000     C
    C   1.0     0.002271     0.804262     0.096735  Biso 1.000000     C
    C   1.0     0.502275     0.804285     0.096776  Biso 1.000000     C
    C   1.0     0.178871     0.082937     0.423320  Biso 1.000000     C
    C   1.0     0.678917     0.082981     0.423584  Biso 1.000000     C
    C   1.0     0.120187     0.083610     0.426240  Biso 1.000000     C
    C   1.0     0.620227     0.083565     0.426536  Biso 1.000000     C
    C   1.0    -0.003986     0.886410     0.149151  Biso 1.000000     C
    C   1.0     0.496000     0.886415     0.149207  Biso 1.000000     C
    C   1.0     0.487921     0.976317     0.120243  Biso 1.000000     C
    C   1.0     0.988114     0.976350     0.120182  Biso 1.000000     C
    C   1.0     0.485407     0.039105     0.248602  Biso 1.000000     C
    C   1.0     0.985480     0.039109     0.248547  Biso 1.000000     C
    C   1.0     0.482580     0.054121     0.169060  Biso 1.000000     C
    C   1.0     0.982786     0.054149     0.169004  Biso 1.000000     C
    C   1.0     0.492353     0.948353     0.277634  Biso 1.000000     C
    C   1.0     0.992358     0.948346     0.277588  Biso 1.000000     C
    N   1.0     0.108832     0.629647     0.016044  Biso 1.000000     N
    N   1.0     0.608871     0.629958     0.015566  Biso 1.000000     N
    N   1.0     0.408151     0.629886     0.019148  Biso 1.000000     N
    N   1.0     0.908148     0.630301     0.018677  Biso 1.000000     N
    N   1.0     0.027727     0.641530     0.362728  Biso 1.000000     N
    N   1.0     0.527746     0.641721     0.362710  Biso 1.000000     N
    N   1.0     0.108836     0.370380     0.983936  Biso 1.000000     N
    N   1.0     0.608876     0.370045     0.984432  Biso 1.000000     N
    N   1.0     0.408158     0.370096     0.980827  Biso 1.000000     N
    N   1.0     0.908151     0.369675     0.981322  Biso 1.000000     N
    N   1.0     0.027722     0.358491     0.637256  Biso 1.000000     N
    N   1.0     0.527776     0.358442     0.637269  Biso 1.000000     N
    N   1.0     0.390713     0.870462     0.516174  Biso 1.000000     N
    N   1.0     0.890697     0.870641     0.515977  Biso 1.000000     N
    N   1.0     0.091420     0.870362     0.519377  Biso 1.000000     N
    N   1.0     0.591361     0.870179     0.519186  Biso 1.000000     N
    N   1.0     0.472300     0.858114     0.861881  Biso 1.000000     N
    N   1.0     0.972719     0.858056     0.861890  Biso 1.000000     N
    N   1.0     0.390592     0.129233     0.483757  Biso 1.000000     N
    N   1.0     0.890679     0.129397     0.484030  Biso 1.000000     N
    N   1.0     0.091328     0.129685     0.480624  Biso 1.000000     N
    N   1.0     0.591344     0.129646     0.480903  Biso 1.000000     N
    N   1.0     0.472362     0.141851     0.138167  Biso 1.000000     N
    N   1.0     0.972729     0.141939     0.138099  Biso 1.000000     N
    O   1.0     0.009776     0.497723     0.090362  Biso 1.000000     O
    O   1.0     0.510892     0.497675     0.090372  Biso 1.000000     O
    O   1.0     0.005045     0.345434     0.116491  Biso 1.000000     O
    O   1.0     0.503873     0.345601     0.116480  Biso 1.000000     O
    O   1.0     0.506074     0.312852     0.473925  Biso 1.000000     O
    O   1.0     0.000000     0.312871     0.474049  Biso 1.000000     O
    O   1.0     0.484518     0.224857     0.372492  Biso 1.000000     O
    O   1.0     0.985435     0.224308     0.372203  Biso 1.000000     O
    O   1.0     0.009767     0.502282     0.909617  Biso 1.000000     O
    O   1.0     0.510896     0.502300     0.909652  Biso 1.000000     O
    O   1.0     0.005032     0.654571     0.883493  Biso 1.000000     O
    O   1.0     0.503887     0.654379     0.883549  Biso 1.000000     O
    O   1.0     0.503841     0.687149     0.526007  Biso 1.000000     O
    O   1.0     0.000000     0.687139     0.525930  Biso 1.000000     O
    O   1.0     0.486479     0.776068     0.628379  Biso 1.000000     O
    O   1.0     0.985444     0.775707     0.627763  Biso 1.000000     O
    O   1.0     0.489091     0.004003     0.590044  Biso 1.000000     O
    O   1.0     0.990125     0.003981     0.590048  Biso 1.000000     O
    O   1.0     0.493839     0.156104     0.616550  Biso 1.000000     O
    O   1.0     0.994810     0.156063     0.616586  Biso 1.000000     O
    O   1.0    -0.002881     0.185264     0.974895  Biso 1.000000     O
    O   1.0     0.496085     0.185439     0.974725  Biso 1.000000     O
    O   1.0     0.012422     0.275829     0.872812  Biso 1.000000     O
    O   1.0     0.513439     0.275523     0.872928  Biso 1.000000     O
    O   1.0     0.491328     0.996091     0.409994  Biso 1.000000     O
    O   1.0     0.990127     0.996023     0.409944  Biso 1.000000     O
    O   1.0     0.493737     0.843874     0.383423  Biso 1.000000     O
    O   1.0     0.994823     0.843943     0.383412  Biso 1.000000     O
    O   1.0    -0.002879     0.814741     0.025100  Biso 1.000000     O
    O   1.0     0.496094     0.814570     0.025277  Biso 1.000000     O
    O   1.0     0.012429     0.724177     0.127181  Biso 1.000000     O
    O   1.0     0.513460     0.724463     0.127057  Biso 1.000000     O
   Cd   1.0     0.008539     0.638260     0.015267  Biso 1.000000    Cd
   Cd   1.0     0.508578     0.638215     0.015313  Biso 1.000000    Cd
   Cd   1.0     0.008541     0.361749     0.984719  Biso 1.000000    Cd
   Cd   1.0     0.508590     0.361761     0.984688  Biso 1.000000    Cd
   Cd   1.0     0.491016     0.862189     0.515714  Biso 1.000000    Cd
   Cd   1.0     0.991077     0.862276     0.515615  Biso 1.000000    Cd
   Cd   1.0     0.490958     0.137872     0.484344  Biso 1.000000    Cd
   Cd   1.0     0.991026     0.137757     0.484378  Biso 1.000000    Cd
