#======================================================================

# CRYSTAL DATA

#----------------------------------------------------------------------

data_VESTA_phase_1


_pd_phase_name                         MOF
_cell_length_a                         13.92800
_cell_length_b                         19.23300
_cell_length_c                         17.93400
_cell_angle_alpha                      102.20000
_cell_angle_beta                       96.87500
_cell_angle_gamma                      105.92900
_symmetry_space_group_name_H-M         "P 1"
_symmetry_Int_Tables_number            1

loop_
_symmetry_equiv_pos_as_xyz
   "x, y, z"

loop_
   _atom_site_label
   _atom_site_occupancy
   _atom_site_fract_x
   _atom_site_fract_y
   _atom_site_fract_z
   _atom_site_adp_type
   _atom_site_B_iso_or_equiv
   _atom_site_type_symbol
    H   1.0     0.400202     0.025448     0.023444  Biso 1.000000     H
    H   1.0     0.400200     0.525449     0.023443  Biso 1.000000     H
    H   1.0     0.900184     0.025451     0.023446  Biso 1.000000     H
    H   1.0     0.900182     0.525453     0.023445  Biso 1.000000     H
    H   1.0     0.111829     0.235639     0.023208  Biso 1.000000     H
    H   1.0     0.111833     0.735641     0.023208  Biso 1.000000     H
    H   1.0     0.611807     0.235642     0.023209  Biso 1.000000     H
    H   1.0     0.611808     0.735643     0.023209  Biso 1.000000     H
    H   1.0     0.079181     0.200238     0.879892  Biso 1.000000     H
    H   1.0     0.079186     0.700239     0.879892  Biso 1.000000     H
    H   1.0     0.579165     0.200240     0.879894  Biso 1.000000     H
    H   1.0     0.579167     0.700241     0.879894  Biso 1.000000     H
    H   1.0     0.360104    -0.009249     0.880173  Biso 1.000000     H
    H   1.0     0.360104     0.490753     0.880172  Biso 1.000000     H
    H   1.0     0.860080    -0.009245     0.880175  Biso 1.000000     H
    H   1.0     0.860080     0.490758     0.880174  Biso 1.000000     H
    H   1.0     0.186973     0.357789     0.476133  Biso 1.000000     H
    H   1.0     0.186976     0.857791     0.476133  Biso 1.000000     H
    H   1.0     0.686951     0.357788     0.476132  Biso 1.000000     H
    H   1.0     0.686951     0.857791     0.476133  Biso 1.000000     H
    H   1.0     0.051192     0.129153     0.478948  Biso 1.000000     H
    H   1.0     0.051197     0.629155     0.478949  Biso 1.000000     H
    H   1.0     0.551168     0.129153     0.478949  Biso 1.000000     H
    H   1.0     0.551174     0.629154     0.478949  Biso 1.000000     H
    H   1.0     0.226504     0.395309     0.620566  Biso 1.000000     H
    H   1.0     0.226509     0.895312     0.620566  Biso 1.000000     H
    H   1.0     0.726483     0.395310     0.620565  Biso 1.000000     H
    H   1.0     0.726485     0.895311     0.620566  Biso 1.000000     H
    H   1.0     0.083946     0.165921     0.623355  Biso 1.000000     H
    H   1.0     0.083954     0.665924     0.623356  Biso 1.000000     H
    H   1.0     0.583923     0.165922     0.623356  Biso 1.000000     H
    H   1.0     0.583931     0.665923     0.623356  Biso 1.000000     H
    H   1.0     0.099778     0.474549     0.976528  Biso 1.000000     H
    H   1.0     0.099785     0.974551     0.976529  Biso 1.000000     H
    H   1.0     0.599758     0.474551     0.976529  Biso 1.000000     H
    H   1.0     0.599767     0.974555     0.976530  Biso 1.000000     H
    H   1.0     0.388155     0.264357     0.976766  Biso 1.000000     H
    H   1.0     0.388162     0.764361     0.976765  Biso 1.000000     H
    H   1.0     0.888132     0.264361     0.976766  Biso 1.000000     H
    H   1.0     0.888135     0.764364     0.976766  Biso 1.000000     H
    H   1.0     0.420799     0.299760     0.120082  Biso 1.000000     H
    H   1.0     0.420804     0.799762     0.120081  Biso 1.000000     H
    H   1.0     0.920779     0.299763     0.120082  Biso 1.000000     H
    H   1.0     0.920782     0.799766     0.120082  Biso 1.000000     H
    H   1.0     0.139881     0.509245     0.119799  Biso 1.000000     H
    H   1.0     0.139888     0.000000     0.119800  Biso 1.000000     H
    H   1.0     0.639859     0.509248     0.119800  Biso 1.000000     H
    H   1.0     0.639865     0.000000     0.119801  Biso 1.000000     H
    H   1.0     0.313011     0.142211     0.523842  Biso 1.000000     H
    H   1.0     0.313017     0.642214     0.523842  Biso 1.000000     H
    H   1.0     0.812988     0.142212     0.523842  Biso 1.000000     H
    H   1.0     0.812995     0.642214     0.523842  Biso 1.000000     H
    H   1.0     0.448793     0.370847     0.521025  Biso 1.000000     H
    H   1.0     0.448795     0.870850     0.521025  Biso 1.000000     H
    H   1.0     0.948770     0.370848     0.521026  Biso 1.000000     H
    H   1.0     0.948771     0.870851     0.521025  Biso 1.000000     H
    H   1.0     0.273479     0.104690     0.379409  Biso 1.000000     H
    H   1.0     0.273483     0.604693     0.379409  Biso 1.000000     H
    H   1.0     0.773457     0.104691     0.379408  Biso 1.000000     H
    H   1.0     0.773461     0.604693     0.379409  Biso 1.000000     H
    H   1.0     0.416038     0.334078     0.376618  Biso 1.000000     H
    H   1.0     0.416038     0.834081     0.376618  Biso 1.000000     H
    H   1.0     0.916015     0.334079     0.376619  Biso 1.000000     H
    H   1.0     0.916013     0.834081     0.376618  Biso 1.000000     H
    C   1.0     0.466969     0.092846     0.869310  Biso 1.000000     C
    C   1.0     0.466970     0.592847     0.869309  Biso 1.000000     C
    C   1.0     0.966950     0.092846     0.869310  Biso 1.000000     C
    C   1.0     0.966952     0.592849     0.869309  Biso 1.000000     C
    C   1.0     0.030143     0.153918     0.118677  Biso 1.000000     C
    C   1.0     0.030144     0.653919     0.118676  Biso 1.000000     C
    C   1.0     0.530120     0.153918     0.118676  Biso 1.000000     C
    C   1.0     0.530118     0.653920     0.118676  Biso 1.000000     C
    C   1.0     0.008326     0.132694     0.032223  Biso 1.000000     C
    C   1.0     0.008327     0.632696     0.032222  Biso 1.000000     C
    C   1.0     0.508307     0.132694     0.032223  Biso 1.000000     C
    C   1.0     0.508306     0.632695     0.032222  Biso 1.000000     C
    C   1.0     0.438232     0.063463     0.991338  Biso 1.000000     C
    C   1.0     0.438231     0.563465     0.991338  Biso 1.000000     C
    C   1.0     0.938214     0.063465     0.991340  Biso 1.000000     C
    C   1.0     0.938215     0.563468     0.991339  Biso 1.000000     C
    C   1.0     0.057592     0.181922     0.991203  Biso 1.000000     C
    C   1.0     0.057595     0.681924     0.991203  Biso 1.000000     C
    C   1.0     0.557574     0.181923     0.991204  Biso 1.000000     C
    C   1.0     0.557575     0.681924     0.991204  Biso 1.000000     C
    C   1.0     0.038102     0.161895     0.910437  Biso 1.000000     C
    C   1.0     0.038106     0.661897     0.910437  Biso 1.000000     C
    C   1.0     0.538086     0.161896     0.910438  Biso 1.000000     C
    C   1.0     0.538088     0.661898     0.910438  Biso 1.000000     C
    C   1.0     0.416733     0.043976     0.910587  Biso 1.000000     C
    C   1.0     0.416733     0.543978     0.910587  Biso 1.000000     C
    C   1.0     0.916713     0.043978     0.910588  Biso 1.000000     C
    C   1.0     0.916714     0.543981     0.910587  Biso 1.000000     C
    C   1.0     0.445264     0.071961     0.784264  Biso 1.000000     C
    C   1.0     0.445264     0.571963     0.784263  Biso 1.000000     C
    C   1.0     0.945241     0.071962     0.784264  Biso 1.000000     C
    C   1.0     0.945244     0.571964     0.784263  Biso 1.000000     C
    C   1.0     0.095905     0.219157     0.382762  Biso 1.000000     C
    C   1.0     0.095907     0.719159     0.382763  Biso 1.000000     C
    C   1.0     0.595885     0.219156     0.382762  Biso 1.000000     C
    C   1.0     0.595885     0.719159     0.382763  Biso 1.000000     C
    C   1.0     0.178837     0.304872     0.716681  Biso 1.000000     C
    C   1.0     0.178844     0.804874     0.716681  Biso 1.000000     C
    C   1.0     0.678818     0.304873     0.716681  Biso 1.000000     C
    C   1.0     0.678823     0.804874     0.716681  Biso 1.000000     C
    C   1.0     0.166137     0.316323     0.509166  Biso 1.000000     C
    C   1.0     0.166141     0.816325     0.509165  Biso 1.000000     C
    C   1.0     0.666116     0.316323     0.509165  Biso 1.000000     C
    C   1.0     0.666118     0.816324     0.509166  Biso 1.000000     C
    C   1.0     0.088239     0.187293     0.510729  Biso 1.000000     C
    C   1.0     0.088244     0.687295     0.510730  Biso 1.000000     C
    C   1.0     0.588216     0.187293     0.510730  Biso 1.000000     C
    C   1.0     0.588222     0.687294     0.510730  Biso 1.000000     C
    C   1.0     0.187516     0.337060     0.589925  Biso 1.000000     C
    C   1.0     0.187521     0.837062     0.589925  Biso 1.000000     C
    C   1.0     0.687494     0.337060     0.589925  Biso 1.000000     C
    C   1.0     0.687497     0.837062     0.589925  Biso 1.000000     C
    C   1.0     0.117082     0.241324     0.469199  Biso 1.000000     C
    C   1.0     0.117087     0.741326     0.469200  Biso 1.000000     C
    C   1.0     0.617062     0.241324     0.469200  Biso 1.000000     C
    C   1.0     0.617063     0.741325     0.469200  Biso 1.000000     C
    C   1.0     0.107239     0.208101     0.591479  Biso 1.000000     C
    C   1.0     0.107245     0.708104     0.591479  Biso 1.000000     C
    C   1.0     0.607217     0.208102     0.591479  Biso 1.000000     C
    C   1.0     0.607223     0.708103     0.591480  Biso 1.000000     C
    C   1.0     0.157642     0.283099     0.631652  Biso 1.000000     C
    C   1.0     0.157649     0.783102     0.631653  Biso 1.000000     C
    C   1.0     0.657621     0.283100     0.631652  Biso 1.000000     C
    C   1.0     0.657627     0.783101     0.631653  Biso 1.000000     C
    C   1.0     0.033011     0.407154     0.130664  Biso 1.000000     C
    C   1.0     0.033016     0.907156     0.130664  Biso 1.000000     C
    C   1.0     0.532994     0.407154     0.130664  Biso 1.000000     C
    C   1.0     0.533000     0.907157     0.130665  Biso 1.000000     C
    C   1.0     0.469840     0.346080     0.881298  Biso 1.000000     C
    C   1.0     0.469849     0.846085     0.881299  Biso 1.000000     C
    C   1.0     0.969818     0.346082     0.881298  Biso 1.000000     C
    C   1.0     0.969825     0.846086     0.881298  Biso 1.000000     C
    C   1.0     0.491654     0.367305     0.967752  Biso 1.000000     C
    C   1.0     0.491662     0.867309     0.967752  Biso 1.000000     C
    C   1.0     0.991636     0.367306     0.967752  Biso 1.000000     C
    C   1.0     0.991641     0.867309     0.967752  Biso 1.000000     C
    C   1.0     0.061747     0.436535     0.008635  Biso 1.000000     C
    C   1.0     0.061753     0.936537     0.008635  Biso 1.000000     C
    C   1.0     0.561729     0.436536     0.008635  Biso 1.000000     C
    C   1.0     0.561737     0.936540     0.008636  Biso 1.000000     C
    C   1.0     0.442388     0.318076     0.008771  Biso 1.000000     C
    C   1.0     0.442395     0.818079     0.008771  Biso 1.000000     C
    C   1.0     0.942369     0.318078     0.008771  Biso 1.000000     C
    C   1.0     0.942373     0.818081     0.008771  Biso 1.000000     C
    C   1.0     0.461877     0.338103     0.089537  Biso 1.000000     C
    C   1.0     0.461882     0.838106     0.089537  Biso 1.000000     C
    C   1.0     0.961858     0.338105     0.089537  Biso 1.000000     C
    C   1.0     0.961862     0.838108     0.089537  Biso 1.000000     C
    C   1.0     0.083249     0.456022     0.089386  Biso 1.000000     C
    C   1.0     0.083255     0.956024     0.089387  Biso 1.000000     C
    C   1.0     0.583229     0.456023     0.089386  Biso 1.000000     C
    C   1.0     0.583236     0.956026     0.089387  Biso 1.000000     C
    C   1.0     0.054720     0.428039     0.215710  Biso 1.000000     C
    C   1.0     0.054724     0.928041     0.215711  Biso 1.000000     C
    C   1.0     0.554701     0.428039     0.215710  Biso 1.000000     C
    C   1.0     0.554705     0.928042     0.215711  Biso 1.000000     C
    C   1.0     0.404076     0.280843     0.617212  Biso 1.000000     C
    C   1.0     0.404082     0.780846     0.617212  Biso 1.000000     C
    C   1.0     0.904056     0.280844     0.617212  Biso 1.000000     C
    C   1.0     0.904060     0.780847     0.617212  Biso 1.000000     C
    C   1.0     0.321144     0.195128     0.283293  Biso 1.000000     C
    C   1.0     0.321145     0.695130     0.283293  Biso 1.000000     C
    C   1.0     0.821124     0.195129     0.283293  Biso 1.000000     C
    C   1.0     0.821124     0.695131     0.283293  Biso 1.000000     C
    C   1.0     0.333846     0.183677     0.490809  Biso 1.000000     C
    C   1.0     0.333851     0.683680     0.490809  Biso 1.000000     C
    C   1.0     0.833824     0.183678     0.490809  Biso 1.000000     C
    C   1.0     0.833829     0.683680     0.490809  Biso 1.000000     C
    C   1.0     0.411745     0.312707     0.489245  Biso 1.000000     C
    C   1.0     0.411748     0.812710     0.489244  Biso 1.000000     C
    C   1.0     0.911723     0.312708     0.489245  Biso 1.000000     C
    C   1.0     0.911725     0.812710     0.489244  Biso 1.000000     C
    C   1.0     0.312467     0.162940     0.410049  Biso 1.000000     C
    C   1.0     0.312471     0.662943     0.410049  Biso 1.000000     C
    C   1.0     0.812445     0.162941     0.410049  Biso 1.000000     C
    C   1.0     0.812449     0.662943     0.410050  Biso 1.000000     C
    C   1.0     0.382899     0.258676     0.530775  Biso 1.000000     C
    C   1.0     0.382904     0.758679     0.530775  Biso 1.000000     C
    C   1.0     0.882877     0.258677     0.530775  Biso 1.000000     C
    C   1.0     0.882882     0.758679     0.530775  Biso 1.000000     C
    C   1.0     0.392744     0.291898     0.408495  Biso 1.000000     C
    C   1.0     0.392746     0.791901     0.408495  Biso 1.000000     C
    C   1.0     0.892722     0.291899     0.408496  Biso 1.000000     C
    C   1.0     0.892723     0.791902     0.408495  Biso 1.000000     C
    C   1.0     0.342340     0.216900     0.368322  Biso 1.000000     C
    C   1.0     0.342342     0.716903     0.368322  Biso 1.000000     C
    C   1.0     0.842319     0.216902     0.368322  Biso 1.000000     C
    C   1.0     0.842320     0.716904     0.368322  Biso 1.000000     C
    N   1.0     0.441775     0.118722     0.738149  Biso 1.000000     N
    N   1.0     0.441779     0.618725     0.738149  Biso 1.000000     N
    N   1.0     0.941755     0.118724     0.738150  Biso 1.000000     N
    N   1.0     0.941760     0.618727     0.738149  Biso 1.000000     N
    N   1.0     0.113225     0.282750     0.762831  Biso 1.000000     N
    N   1.0     0.113231     0.782753     0.762831  Biso 1.000000     N
    N   1.0     0.613207     0.282750     0.762832  Biso 1.000000     N
    N   1.0     0.613212     0.782751     0.762832  Biso 1.000000     N
    N   1.0     0.254695     0.355868     0.837629  Biso 1.000000     N
    N   1.0     0.254702     0.855869     0.837629  Biso 1.000000     N
    N   1.0     0.754676     0.355870     0.837629  Biso 1.000000     N
    N   1.0     0.754683     0.855868     0.837629  Biso 1.000000     N
    N   1.0     0.162804     0.315493     0.837871  Biso 1.000000     N
    N   1.0     0.162809     0.815496     0.837871  Biso 1.000000     N
    N   1.0     0.662787     0.315492     0.837871  Biso 1.000000     N
    N   1.0     0.662789     0.815498     0.837871  Biso 1.000000     N
    N   1.0     0.418879     0.076695     0.662889  Biso 1.000000     N
    N   1.0     0.418881     0.576698     0.662889  Biso 1.000000     N
    N   1.0     0.918851     0.076696     0.662890  Biso 1.000000     N
    N   1.0     0.918861     0.576699     0.662889  Biso 1.000000     N
    N   1.0     0.408606     0.007230     0.662847  Biso 1.000000     N
    N   1.0     0.408607     0.507233     0.662846  Biso 1.000000     N
    N   1.0     0.908582     0.007231     0.662847  Biso 1.000000     N
    N   1.0     0.908581     0.507234     0.662846  Biso 1.000000     N
    N   1.0     0.267175     0.350394     0.762446  Biso 1.000000     N
    N   1.0     0.267182     0.850397     0.762446  Biso 1.000000     N
    N   1.0     0.767155     0.350396     0.762446  Biso 1.000000     N
    N   1.0     0.767160     0.850398     0.762446  Biso 1.000000     N
    N   1.0     0.424864     0.002401     0.738055  Biso 1.000000     N
    N   1.0     0.424862     0.502403     0.738055  Biso 1.000000     N
    N   1.0     0.924840     0.002402     0.738055  Biso 1.000000     N
    N   1.0     0.924841     0.502404     0.738054  Biso 1.000000     N
    N   1.0     0.058206     0.381277     0.261825  Biso 1.000000     N
    N   1.0     0.058208     0.881279     0.261825  Biso 1.000000     N
    N   1.0     0.558186     0.381278     0.261825  Biso 1.000000     N
    N   1.0     0.558190     0.881280     0.261825  Biso 1.000000     N
    N   1.0     0.386755     0.217251     0.237143  Biso 1.000000     N
    N   1.0     0.386756     0.717253     0.237143  Biso 1.000000     N
    N   1.0     0.886737     0.217250     0.237143  Biso 1.000000     N
    N   1.0     0.886736     0.717252     0.237143  Biso 1.000000     N
    N   1.0     0.245285     0.144133     0.162345  Biso 1.000000     N
    N   1.0     0.245285     0.644136     0.162346  Biso 1.000000     N
    N   1.0     0.745266     0.144134     0.162346  Biso 1.000000     N
    N   1.0     0.745266     0.644134     0.162346  Biso 1.000000     N
    N   1.0     0.337176     0.184508     0.162104  Biso 1.000000     N
    N   1.0     0.337176     0.684511     0.162103  Biso 1.000000     N
    N   1.0     0.837158     0.184508     0.162104  Biso 1.000000     N
    N   1.0     0.837157     0.684511     0.162104  Biso 1.000000     N
    N   1.0     0.081109     0.423305     0.337085  Biso 1.000000     N
    N   1.0     0.081112     0.923306     0.337085  Biso 1.000000     N
    N   1.0     0.581088     0.423305     0.337085  Biso 1.000000     N
    N   1.0     0.581093     0.923307     0.337085  Biso 1.000000     N
    N   1.0     0.091387     0.492770     0.337127  Biso 1.000000     N
    N   1.0     0.091382     0.992771     0.337128  Biso 1.000000     N
    N   1.0     0.591353     0.492769     0.337127  Biso 1.000000     N
    N   1.0     0.591355     0.992771     0.337128  Biso 1.000000     N
    N   1.0     0.232807     0.149605     0.237529  Biso 1.000000     N
    N   1.0     0.232807     0.649608     0.237529  Biso 1.000000     N
    N   1.0     0.732787     0.149606     0.237529  Biso 1.000000     N
    N   1.0     0.732786     0.649608     0.237529  Biso 1.000000     N
    N   1.0     0.075124     0.497599     0.261919  Biso 1.000000     N
    N   1.0     0.075125     0.997601     0.261920  Biso 1.000000     N
    N   1.0     0.575103     0.497600     0.261919  Biso 1.000000     N
    N   1.0     0.575106     0.997602     0.261920  Biso 1.000000     N
    O   1.0     0.005513     0.101516     0.153130  Biso 1.000000     O
    O   1.0     0.005512     0.601518     0.153130  Biso 1.000000     O
    O   1.0     0.505494     0.101515     0.153129  Biso 1.000000     O
    O   1.0     0.505493     0.601517     0.153129  Biso 1.000000     O
    O   1.0     0.072017     0.223264     0.153031  Biso 1.000000     O
    O   1.0     0.072016     0.723266     0.153030  Biso 1.000000     O
    O   1.0     0.572003     0.223263     0.153031  Biso 1.000000     O
    O   1.0     0.572003     0.723265     0.153031  Biso 1.000000     O
    O   1.0     0.117487     0.271211     0.347682  Biso 1.000000     O
    O   1.0     0.117487     0.771212     0.347682  Biso 1.000000     O
    O   1.0     0.617470     0.271210     0.347683  Biso 1.000000     O
    O   1.0     0.617472     0.771212     0.347683  Biso 1.000000     O
    O   1.0     0.057629     0.149493     0.348889  Biso 1.000000     O
    O   1.0     0.057628     0.649495     0.348889  Biso 1.000000     O
    O   1.0     0.557606     0.149493     0.348888  Biso 1.000000     O
    O   1.0     0.557608     0.649495     0.348889  Biso 1.000000     O
    O   1.0     0.494466     0.398483     0.846845  Biso 1.000000     O
    O   1.0     0.494476     0.898487     0.846846  Biso 1.000000     O
    O   1.0     0.994447     0.398485     0.846845  Biso 1.000000     O
    O   1.0     0.994455     0.898488     0.846845  Biso 1.000000     O
    O   1.0     0.427957     0.276735     0.846944  Biso 1.000000     O
    O   1.0     0.427964     0.776740     0.846944  Biso 1.000000     O
    O   1.0     0.927943     0.276736     0.846944  Biso 1.000000     O
    O   1.0     0.927949     0.776740     0.846944  Biso 1.000000     O
    O   1.0     0.382494     0.228789     0.652292  Biso 1.000000     O
    O   1.0     0.382499     0.728792     0.652291  Biso 1.000000     O
    O   1.0     0.882478     0.228790     0.652292  Biso 1.000000     O
    O   1.0     0.882482     0.728793     0.652292  Biso 1.000000     O
    O   1.0     0.442355     0.350507     0.651086  Biso 1.000000     O
    O   1.0     0.442361     0.850509     0.651086  Biso 1.000000     O
    O   1.0     0.942334     0.350508     0.651086  Biso 1.000000     O
    O   1.0     0.942339     0.850511     0.651086  Biso 1.000000     O
   Zn   1.0     0.036934     0.271539     0.249915  Biso 1.000000    Zn
   Zn   1.0     0.036934     0.771540     0.249915  Biso 1.000000    Zn
   Zn   1.0     0.536921     0.271540     0.249916  Biso 1.000000    Zn
   Zn   1.0     0.536921     0.771541     0.249915  Biso 1.000000    Zn
   Zn   1.0     0.088732     0.101402     0.250175  Biso 1.000000    Zn
   Zn   1.0     0.088732     0.601404     0.250175  Biso 1.000000    Zn
   Zn   1.0     0.588711     0.101402     0.250175  Biso 1.000000    Zn
   Zn   1.0     0.588710     0.601404     0.250175  Biso 1.000000    Zn
   Zn   1.0     0.463043     0.228460     0.750060  Biso 1.000000    Zn
   Zn   1.0     0.463046     0.728463     0.750060  Biso 1.000000    Zn
   Zn   1.0     0.963029     0.228463     0.750060  Biso 1.000000    Zn
   Zn   1.0     0.963033     0.728466     0.750060  Biso 1.000000    Zn
   Zn   1.0     0.411250     0.398598     0.749800  Biso 1.000000    Zn
   Zn   1.0     0.411258     0.898601     0.749801  Biso 1.000000    Zn
   Zn   1.0     0.911229     0.398599     0.749800  Biso 1.000000    Zn
   Zn   1.0     0.911236     0.898601     0.749800  Biso 1.000000    Zn
