#======================================================================

# CRYSTAL DATA

#----------------------------------------------------------------------

data_VESTA_phase_1


_pd_phase_name                         MOF
_cell_length_a                         17.38300
_cell_length_b                         18.64500
_cell_length_c                         18.18400
_cell_angle_alpha                      90.39800
_cell_angle_beta                       90.03500
_cell_angle_gamma                      90.00700
_symmetry_space_group_name_H-M         "P 1"
_symmetry_Int_Tables_number            1

loop_
_symmetry_equiv_pos_as_xyz
   "x, y, z"

loop_
   _atom_site_label
   _atom_site_occupancy
   _atom_site_fract_x
   _atom_site_fract_y
   _atom_site_fract_z
   _atom_site_adp_type
   _atom_site_B_iso_or_equiv
   _atom_site_type_symbol
    H   1.0     0.312907     0.578655     0.033735  Biso 1.000000     H
    H   1.0     0.864364     0.524318     0.223851  Biso 1.000000     H
    H   1.0     0.654960     0.437995     0.133979  Biso 1.000000     H
    H   1.0     0.656789     0.340544     0.227819  Biso 1.000000     H
    H   1.0     0.865752     0.427065     0.318634  Biso 1.000000     H
    H   1.0     0.065651     0.714889     0.860826  Biso 1.000000     H
    H   1.0     0.208507     0.716401     0.862727  Biso 1.000000     H
    H   1.0     0.205764     0.638534     0.085506  Biso 1.000000     H
    H   1.0     0.070232     0.081616     0.537268  Biso 1.000000     H
    H   1.0     0.672440     0.031131     0.216081  Biso 1.000000     H
    H   1.0     0.855787     0.922217     0.327906  Biso 1.000000     H
    H   1.0     0.853006     0.824900     0.232465  Biso 1.000000     H
    H   1.0     0.669673     0.933465     0.120477  Biso 1.000000     H
    H   1.0     0.463620     0.153000     0.587756  Biso 1.000000     H
    H   1.0     0.071435     0.276056     0.411490  Biso 1.000000     H
    H   1.0     0.214589     0.274545     0.410030  Biso 1.000000     H
    H   1.0     0.455606     0.577185     0.030175  Biso 1.000000     H
    H   1.0     0.859431     0.528073     0.720583  Biso 1.000000     H
    H   1.0     0.671978     0.420771     0.827657  Biso 1.000000     H
    H   1.0     0.675475     0.324063     0.731561  Biso 1.000000     H
    H   1.0     0.862518     0.431262     0.624038  Biso 1.000000     H
    H   1.0     0.062886     0.639667     0.083655  Biso 1.000000     H
    H   1.0     0.455454     0.779114     0.917442  Biso 1.000000     H
    H   1.0     0.312364     0.778874     0.916591  Biso 1.000000     H
    H   1.0     0.212652     0.082549     0.540907  Biso 1.000000     H
    H   1.0     0.661592     0.025390     0.724401  Biso 1.000000     H
    H   1.0     0.864277     0.931828     0.628471  Biso 1.000000     H
    H   1.0     0.861340     0.834330     0.722133  Biso 1.000000     H
    H   1.0     0.659471     0.928320     0.819291  Biso 1.000000     H
    H   1.0     0.460322     0.199065     0.356619  Biso 1.000000     H
    H   1.0     0.317095     0.200050     0.358305  Biso 1.000000     H
    H   1.0     0.320459     0.152449     0.589931  Biso 1.000000     H
    H   1.0     0.686772     0.420787     0.966689  Biso 1.000000     H
    H   1.0     0.142288     0.469709     0.280734  Biso 1.000000     H
    H   1.0     0.330069     0.576567     0.173747  Biso 1.000000     H
    H   1.0     0.326067     0.673781     0.269334  Biso 1.000000     H
    H   1.0     0.138366     0.567220     0.376517  Biso 1.000000     H
    H   1.0     0.936688     0.359318     0.915885  Biso 1.000000     H
    H   1.0     0.930318     0.916987     0.463153  Biso 1.000000     H
    H   1.0     0.337445     0.972371     0.274559  Biso 1.000000     H
    H   1.0     0.135438     0.066267     0.371422  Biso 1.000000     H
    H   1.0     0.138253     0.163868     0.277940  Biso 1.000000     H
    H   1.0     0.339540     0.069609     0.179937  Biso 1.000000     H
    H   1.0     0.539801     0.798735     0.643041  Biso 1.000000     H
    H   1.0     0.927810     0.722077     0.588156  Biso 1.000000     H
    H   1.0     0.784664     0.724155     0.589167  Biso 1.000000     H
    H   1.0     0.544019     0.421668     0.970101  Biso 1.000000     H
    H   1.0     0.135147     0.476183     0.777770  Biso 1.000000     H
    H   1.0     0.344921     0.562442     0.866909  Biso 1.000000     H
    H   1.0     0.342957     0.659643     0.772827  Biso 1.000000     H
    H   1.0     0.133736     0.573063     0.682637  Biso 1.000000     H
    H   1.0     0.934800     0.287516     0.139934  Biso 1.000000     H
    H   1.0     0.791917     0.285167     0.138299  Biso 1.000000     H
    H   1.0     0.793788     0.359806     0.914344  Biso 1.000000     H
    H   1.0     0.545065     0.219962     0.083269  Biso 1.000000     H
    H   1.0     0.688200     0.220916     0.084386  Biso 1.000000     H
    H   1.0     0.787899     0.916598     0.459014  Biso 1.000000     H
    H   1.0     0.328264     0.969219     0.783049  Biso 1.000000     H
    H   1.0     0.143622     0.077190     0.672191  Biso 1.000000     H
    H   1.0     0.146388     0.174499     0.767634  Biso 1.000000     H
    H   1.0     0.331013     0.066862     0.878626  Biso 1.000000     H
    H   1.0     0.536139     0.848265     0.412693  Biso 1.000000     H
    H   1.0     0.679284     0.848844     0.410290  Biso 1.000000     H
    H   1.0     0.683025     0.797933     0.641157  Biso 1.000000     H
    C   1.0     0.763779     0.319348     0.333913  Biso 1.000000     C
    C   1.0     0.343857     0.622994     0.008714  Biso 1.000000     C
    C   1.0     0.761651     0.378011     0.278459  Biso 1.000000     C
    C   1.0     0.759753     0.486546     0.173317  Biso 1.000000     C
    C   1.0     0.759899     0.543267     0.115715  Biso 1.000000     C
    C   1.0     0.819174     0.483927     0.225460  Biso 1.000000     C
    C   1.0     0.700765     0.435246     0.174638  Biso 1.000000     C
    C   1.0     0.701825     0.381106     0.226797  Biso 1.000000     C
    C   1.0     0.820018     0.430021     0.277842  Biso 1.000000     C
    C   1.0     0.096918     0.698981     0.909992  Biso 1.000000     C
    C   1.0     0.176831     0.700126     0.911520  Biso 1.000000     C
    C   1.0     0.175346     0.655177     0.036028  Biso 1.000000     C
    C   1.0     0.760193     0.815918     0.113024  Biso 1.000000     C
    C   1.0     0.102235     0.124633     0.510973  Biso 1.000000     C
    C   1.0     0.761201     0.873555     0.170819  Biso 1.000000     C
    C   1.0     0.764251     0.982541     0.277650  Biso 1.000000     C
    C   1.0     0.766040     0.041217     0.334241  Biso 1.000000     C
    C   1.0     0.711631     0.985720     0.219166  Biso 1.000000     C
    C   1.0     0.815120     0.924292     0.282458  Biso 1.000000     C
    C   1.0     0.813616     0.870174     0.229414  Biso 1.000000     C
    C   1.0     0.710063     0.931594     0.166201  Biso 1.000000     C
    C   1.0     0.430924     0.162811     0.537736  Biso 1.000000     C
    C   1.0     0.103067     0.233544     0.439013  Biso 1.000000     C
    C   1.0     0.183013     0.232546     0.438525  Biso 1.000000     C
    C   1.0     0.769727     0.315262     0.613534  Biso 1.000000     C
    C   1.0     0.423806     0.621809     0.006561  Biso 1.000000     C
    C   1.0     0.769106     0.372132     0.672097  Biso 1.000000     C
    C   1.0     0.765600     0.480201     0.779825  Biso 1.000000     C
    C   1.0     0.762937     0.538805     0.836453  Biso 1.000000     C
    C   1.0     0.819526     0.483119     0.722495  Biso 1.000000     C
    C   1.0     0.713793     0.422555     0.783174  Biso 1.000000     C
    C   1.0     0.715603     0.368844     0.729736  Biso 1.000000     C
    C   1.0     0.821281     0.429461     0.669026  Biso 1.000000     C
    C   1.0     0.095391     0.655796     0.035341  Biso 1.000000     C
    C   1.0     0.423597     0.735079     0.942054  Biso 1.000000     C
    C   1.0     0.343628     0.734721     0.941834  Biso 1.000000     C
    C   1.0     0.758963     0.817849     0.832697  Biso 1.000000     C
    C   1.0     0.182192     0.125450     0.512884  Biso 1.000000     C
    C   1.0     0.760187     0.875605     0.776154  Biso 1.000000     C
    C   1.0     0.763055     0.984252     0.670929  Biso 1.000000     C
    C   1.0     0.764365     0.041849     0.614159  Biso 1.000000     C
    C   1.0     0.705116     0.983422     0.724640  Biso 1.000000     C
    C   1.0     0.819658     0.930647     0.670341  Biso 1.000000     C
    C   1.0     0.818017     0.876454     0.722439  Biso 1.000000     C
    C   1.0     0.703824     0.929545     0.777073  Biso 1.000000     C
    C   1.0     0.429130     0.189524     0.407543  Biso 1.000000     C
    C   1.0     0.349152     0.190527     0.408854  Biso 1.000000     C
    C   1.0     0.350963     0.162400     0.538601  Biso 1.000000     C
    C   1.0     0.464464     0.678141     0.973629  Biso 1.000000     C
    C   1.0     0.969721     0.678711     0.971741  Biso 1.000000     C
    C   1.0     0.550149     0.677795     0.972391  Biso 1.000000     C
    C   1.0     0.302375     0.678877     0.975426  Biso 1.000000     C
    C   1.0     0.055395     0.677576     0.972225  Biso 1.000000     C
    C   1.0     0.217453     0.678131     0.974438  Biso 1.000000     C
    C   1.0     0.061931     0.178926     0.474327  Biso 1.000000     C
    C   1.0     0.556537     0.177621     0.471756  Biso 1.000000     C
    C   1.0     0.976244     0.178560     0.472595  Biso 1.000000     C
    C   1.0     0.223856     0.178633     0.475674  Biso 1.000000     C
    C   1.0     0.470807     0.176432     0.472191  Biso 1.000000     C
    C   1.0     0.308777     0.177154     0.474403  Biso 1.000000     C
    C   1.0     0.230920     0.683502     0.386527  Biso 1.000000     C
    C   1.0     0.655970     0.376406     0.991796  Biso 1.000000     C
    C   1.0     0.232031     0.626095     0.328547  Biso 1.000000     C
    C   1.0     0.236304     0.517369     0.221603  Biso 1.000000     C
    C   1.0     0.238869     0.458568     0.165226  Biso 1.000000     C
    C   1.0     0.182118     0.514713     0.278730  Biso 1.000000     C
    C   1.0     0.288078     0.575004     0.218097  Biso 1.000000     C
    C   1.0     0.285941     0.629006     0.271213  Biso 1.000000     C
    C   1.0     0.179915     0.568741     0.331777  Biso 1.000000     C
    C   1.0     0.904373     0.343834     0.964543  Biso 1.000000     C
    C   1.0     0.240590     0.180726     0.167169  Biso 1.000000     C
    C   1.0     0.898024     0.874001     0.489180  Biso 1.000000     C
    C   1.0     0.239158     0.122601     0.223452  Biso 1.000000     C
    C   1.0     0.236356     0.013628     0.328591  Biso 1.000000     C
    C   1.0     0.235300     0.955954     0.385381  Biso 1.000000     C
    C   1.0     0.294040     0.014453     0.274608  Biso 1.000000     C
    C   1.0     0.179906     0.067380     0.329395  Biso 1.000000     C
    C   1.0     0.181495     0.121673     0.277360  Biso 1.000000     C
    C   1.0     0.295309     0.068454     0.222276  Biso 1.000000     C
    C   1.0     0.570926     0.809019     0.592237  Biso 1.000000     C
    C   1.0     0.896458     0.764816     0.560713  Biso 1.000000     C
    C   1.0     0.816529     0.766134     0.560940  Biso 1.000000     C
    C   1.0     0.236020     0.680557     0.666631  Biso 1.000000     C
    C   1.0     0.576021     0.377238     0.993850  Biso 1.000000     C
    C   1.0     0.237999     0.622135     0.722415  Biso 1.000000     C
    C   1.0     0.239963     0.513902     0.827988  Biso 1.000000     C
    C   1.0     0.240020     0.457104     0.885533  Biso 1.000000     C
    C   1.0     0.180405     0.516499     0.775962  Biso 1.000000     C
    C   1.0     0.298992     0.565144     0.826377  Biso 1.000000     C
    C   1.0     0.297868     0.619140     0.774046  Biso 1.000000     C
    C   1.0     0.179544     0.570217     0.723365  Biso 1.000000     C
    C   1.0     0.903325     0.302554     0.090597  Biso 1.000000     C
    C   1.0     0.823422     0.300938     0.089230  Biso 1.000000     C
    C   1.0     0.824419     0.344073     0.964016  Biso 1.000000     C
    C   1.0     0.576738     0.264084     0.058607  Biso 1.000000     C
    C   1.0     0.656709     0.264829     0.058960  Biso 1.000000     C
    C   1.0     0.239815     0.183961     0.886668  Biso 1.000000     C
    C   1.0     0.818074     0.873487     0.486978  Biso 1.000000     C
    C   1.0     0.238827     0.126335     0.828812  Biso 1.000000     C
    C   1.0     0.235797     0.017308     0.721938  Biso 1.000000     C
    C   1.0     0.234018     0.958549     0.665407  Biso 1.000000     C
    C   1.0     0.288786     0.014427     0.780150  Biso 1.000000     C
    C   1.0     0.184581     0.075315     0.717412  Biso 1.000000     C
    C   1.0     0.186080     0.129440     0.770467  Biso 1.000000     C
    C   1.0     0.290339     0.068553     0.833121  Biso 1.000000     C
    C   1.0     0.568921     0.837659     0.462485  Biso 1.000000     C
    C   1.0     0.648878     0.838129     0.461507  Biso 1.000000     C
    C   1.0     0.650890     0.808133     0.590801  Biso 1.000000     C
    C   1.0     0.535633     0.320723     0.026773  Biso 1.000000     C
    C   1.0     0.030252     0.322398     0.028303  Biso 1.000000     C
    C   1.0     0.449963     0.320672     0.027763  Biso 1.000000     C
    C   1.0     0.697677     0.320765     0.025232  Biso 1.000000     C
    C   1.0     0.944587     0.323228     0.027946  Biso 1.000000     C
    C   1.0     0.782588     0.321851     0.026059  Biso 1.000000     C
    C   1.0     0.937938     0.819459     0.525831  Biso 1.000000     C
    C   1.0     0.443450     0.821277     0.528288  Biso 1.000000     C
    C   1.0     0.023589     0.819608     0.527977  Biso 1.000000     C
    C   1.0     0.776052     0.820423     0.523995  Biso 1.000000     C
    C   1.0     0.529156     0.822940     0.527843  Biso 1.000000     C
    C   1.0     0.691158     0.822276     0.525362  Biso 1.000000     C
    O   1.0     0.713073     0.534602     0.062257  Biso 1.000000     O
    O   1.0     0.809949     0.327803     0.387880  Biso 1.000000     O
    O   1.0     0.806753     0.595375     0.124380  Biso 1.000000     O
    O   1.0     0.719618     0.265567     0.322492  Biso 1.000000     O
    O   1.0     0.936091     0.671222     0.033737  Biso 1.000000     O
    O   1.0     0.813532     0.033744     0.387436  Biso 1.000000     O
    O   1.0     0.709672     0.821868     0.062356  Biso 1.000000     O
    O   1.0     0.720097     0.093677     0.324794  Biso 1.000000     O
    O   1.0     0.809887     0.765951     0.119088  Biso 1.000000     O
    O   1.0     0.589855     0.181502     0.409154  Biso 1.000000     O
    O   1.0     0.713801     0.531720     0.888265  Biso 1.000000     O
    O   1.0     0.819968     0.321718     0.562707  Biso 1.000000     O
    O   1.0     0.809651     0.590902     0.828115  Biso 1.000000     O
    O   1.0     0.719851     0.265427     0.619177  Biso 1.000000     O
    O   1.0     0.936471     0.687411     0.909572  Biso 1.000000     O
    O   1.0     0.813169     0.034544     0.562207  Biso 1.000000     O
    O   1.0     0.713764     0.827250     0.887244  Biso 1.000000     O
    O   1.0     0.716760     0.093503     0.622045  Biso 1.000000     O
    O   1.0     0.803119     0.763992     0.821791  Biso 1.000000     O
    O   1.0     0.590137     0.174935     0.534244  Biso 1.000000     O
    O   1.0     0.759790     0.679271     0.972261  Biso 1.000000     O
    O   1.0     0.583376     0.617255     0.981412  Biso 1.000000     O
    O   1.0     0.583683     0.737962     0.962338  Biso 1.000000     O
    O   1.0     0.766742     0.179594     0.472143  Biso 1.000000     O
    O   1.0     0.942994     0.118531     0.484404  Biso 1.000000     O
    O   1.0     0.942722     0.238124     0.459308  Biso 1.000000     O
    O   1.0     0.286690     0.465857     0.112389  Biso 1.000000     O
    O   1.0     0.180126     0.677928     0.436942  Biso 1.000000     O
    O   1.0     0.193111     0.405967     0.174821  Biso 1.000000     O
    O   1.0     0.281123     0.733063     0.380755  Biso 1.000000     O
    O   1.0     0.063566     0.315372     0.090667  Biso 1.000000     O
    O   1.0     0.186473     0.962860     0.437377  Biso 1.000000     O
    O   1.0     0.286355     0.171902     0.112937  Biso 1.000000     O
    O   1.0     0.283232     0.904585     0.377519  Biso 1.000000     O
    O   1.0     0.196135     0.234367     0.177965  Biso 1.000000     O
    O   1.0     0.409832     0.825061     0.465889  Biso 1.000000     O
    O   1.0     0.287303     0.465230     0.938714  Biso 1.000000     O
    O   1.0     0.190046     0.671886     0.612532  Biso 1.000000     O
    O   1.0     0.192777     0.405286     0.877100  Biso 1.000000     O
    O   1.0     0.280137     0.734373     0.677942  Biso 1.000000     O
    O   1.0     0.063748     0.328434     0.966079  Biso 1.000000     O
    O   1.0     0.186541     0.965761     0.612178  Biso 1.000000     O
    O   1.0     0.290299     0.177953     0.937352  Biso 1.000000     O
    O   1.0     0.280072     0.906164     0.675014  Biso 1.000000     O
    O   1.0     0.190141     0.233966     0.880628  Biso 1.000000     O
    O   1.0     0.410162     0.815839     0.590785  Biso 1.000000     O
    O   1.0     0.239902     0.319304     0.027819  Biso 1.000000     O
    O   1.0     0.416582     0.381131     0.018623  Biso 1.000000     O
    O   1.0     0.416585     0.260381     0.037658  Biso 1.000000     O
    O   1.0     0.233561     0.819032     0.527924  Biso 1.000000     O
    O   1.0     0.056949     0.879816     0.517398  Biso 1.000000     O
    O   1.0     0.056937     0.759766     0.540459  Biso 1.000000     O
   Zn   1.0     0.826591     0.678104     0.059787  Biso 1.000000    Zn
   Zn   1.0     0.700152     0.180949     0.384534  Biso 1.000000    Zn
   Zn   1.0     0.826432     0.680880     0.884688  Biso 1.000000    Zn
   Zn   1.0     0.700036     0.178243     0.559587  Biso 1.000000    Zn
   Zn   1.0     0.693569     0.593906     0.974912  Biso 1.000000    Zn
   Zn   1.0     0.693203     0.764804     0.971964  Biso 1.000000    Zn
   Zn   1.0     0.833177     0.094171     0.475177  Biso 1.000000    Zn
   Zn   1.0     0.833479     0.265023     0.471721  Biso 1.000000    Zn
   Zn   1.0     0.173652     0.318460     0.115625  Biso 1.000000    Zn
   Zn   1.0     0.300076     0.820010     0.440343  Biso 1.000000    Zn
   Zn   1.0     0.173280     0.321630     0.940249  Biso 1.000000    Zn
   Zn   1.0     0.299961     0.818744     0.615607  Biso 1.000000    Zn
   Zn   1.0     0.306468     0.404274     0.025097  Biso 1.000000    Zn
   Zn   1.0     0.306859     0.234333     0.028155  Biso 1.000000    Zn
   Zn   1.0     0.166826     0.903921     0.525004  Biso 1.000000    Zn
   Zn   1.0     0.166455     0.734193     0.528329  Biso 1.000000    Zn
