#======================================================================

# CRYSTAL DATA

#----------------------------------------------------------------------

data_VESTA_phase_1


_pd_phase_name                         MOF
_cell_length_a                         17.28800
_cell_length_b                         17.27600
_cell_length_c                         17.33500
_cell_angle_alpha                      85.83400
_cell_angle_beta                       86.33600
_cell_angle_gamma                      86.54000
_symmetry_space_group_name_H-M         "P 1"
_symmetry_Int_Tables_number            1

loop_
_symmetry_equiv_pos_as_xyz
   "x, y, z"

loop_
   _atom_site_label
   _atom_site_occupancy
   _atom_site_fract_x
   _atom_site_fract_y
   _atom_site_fract_z
   _atom_site_adp_type
   _atom_site_B_iso_or_equiv
   _atom_site_type_symbol
    H   1.0     0.916198     0.911436     0.505460  Biso 1.000000     H
    H   1.0     0.744628     0.747213     0.376558  Biso 1.000000     H
    H   1.0     0.742263     0.743273     0.521212  Biso 1.000000     H
    H   1.0     0.000000     0.009690     0.333427  Biso 1.000000     H
    H   1.0     0.936437     0.016175     0.417172  Biso 1.000000     H
    H   1.0     0.016774     0.944980     0.417781  Biso 1.000000     H
    H   1.0     0.716700     0.880882     0.121991  Biso 1.000000     H
    H   1.0     0.945142     0.770799     0.260303  Biso 1.000000     H
    H   1.0     0.941767     0.761141     0.118282  Biso 1.000000     H
    H   1.0     0.600943     0.948803     0.285430  Biso 1.000000     H
    H   1.0     0.651921     0.968770     0.193536  Biso 1.000000     H
    H   1.0     0.612641     0.875386     0.216756  Biso 1.000000     H
    H   1.0     0.507808     0.915024     0.911168  Biso 1.000000     H
    H   1.0     0.374740     0.748413     0.745924  Biso 1.000000     H
    H   1.0     0.519767     0.745268     0.741553  Biso 1.000000     H
    H   1.0     0.336854     0.000000     0.009169  Biso 1.000000     H
    H   1.0     0.420314     0.934820     0.015856  Biso 1.000000     H
    H   1.0     0.421048     0.015982     0.944748  Biso 1.000000     H
    H   1.0     0.121074     0.718651     0.881109  Biso 1.000000     H
    H   1.0     0.259837     0.947704     0.769702  Biso 1.000000     H
    H   1.0     0.117360     0.944827     0.760566  Biso 1.000000     H
    H   1.0     0.284562     0.602331     0.950287  Biso 1.000000     H
    H   1.0     0.193118     0.653933     0.969554  Biso 1.000000     H
    H   1.0     0.214918     0.614177     0.877199  Biso 1.000000     H
    H   1.0     0.909956     0.507505     0.916672  Biso 1.000000     H
    H   1.0     0.750710     0.376461     0.742600  Biso 1.000000     H
    H   1.0     0.745180     0.521514     0.740832  Biso 1.000000     H
    H   1.0     0.008915     0.336303     0.000000  Biso 1.000000     H
    H   1.0     0.015570     0.420875     0.936923  Biso 1.000000     H
    H   1.0     0.943600     0.419683     0.016593  Biso 1.000000     H
    H   1.0     0.879727     0.123297     0.714879  Biso 1.000000     H
    H   1.0     0.774662     0.258778     0.944888  Biso 1.000000     H
    H   1.0     0.763941     0.116391     0.941691  Biso 1.000000     H
    H   1.0     0.949143     0.288247     0.599028  Biso 1.000000     H
    H   1.0     0.969042     0.196303     0.650753  Biso 1.000000     H
    H   1.0     0.876028     0.218119     0.611194  Biso 1.000000     H
    H   1.0     0.083782     0.088592     0.494546  Biso 1.000000     H
    H   1.0     0.255388     0.252774     0.623452  Biso 1.000000     H
    H   1.0     0.257749     0.256725     0.478800  Biso 1.000000     H
    H   1.0    -0.002185     0.990344     0.666583  Biso 1.000000     H
    H   1.0     0.063529     0.983848     0.582837  Biso 1.000000     H
    H   1.0     0.983201     0.055054     0.582228  Biso 1.000000     H
    H   1.0     0.283314     0.119151     0.878019  Biso 1.000000     H
    H   1.0     0.054849     0.229180     0.739712  Biso 1.000000     H
    H   1.0     0.058228     0.238852     0.881729  Biso 1.000000     H
    H   1.0     0.399076     0.051233     0.714583  Biso 1.000000     H
    H   1.0     0.348104     0.031266     0.806480  Biso 1.000000     H
    H   1.0     0.387368     0.124657     0.783250  Biso 1.000000     H
    H   1.0     0.492206     0.084979     0.088864  Biso 1.000000     H
    H   1.0     0.625233     0.251863     0.253864  Biso 1.000000     H
    H   1.0     0.480210     0.254991     0.258222  Biso 1.000000     H
    H   1.0     0.663154    -0.001245     0.990950  Biso 1.000000     H
    H   1.0     0.579693     0.065100     0.984197  Biso 1.000000     H
    H   1.0     0.578961     0.984011     0.055389  Biso 1.000000     H
    H   1.0     0.878958     0.281484     0.118958  Biso 1.000000     H
    H   1.0     0.740118     0.052401     0.230151  Biso 1.000000     H
    H   1.0     0.882593     0.055233     0.239345  Biso 1.000000     H
    H   1.0     0.715522     0.397867     0.049752  Biso 1.000000     H
    H   1.0     0.806941     0.346227     0.030463  Biso 1.000000     H
    H   1.0     0.785176     0.385973     0.122829  Biso 1.000000     H
    H   1.0     0.090038     0.492529     0.083333  Biso 1.000000     H
    H   1.0     0.249274     0.623564     0.257423  Biso 1.000000     H
    H   1.0     0.254799     0.478510     0.259186  Biso 1.000000     H
    H   1.0     0.991084     0.663724    -0.002745  Biso 1.000000     H
    H   1.0     0.984437     0.579147     0.063076  Biso 1.000000     H
    H   1.0     0.056413     0.580354     0.983411  Biso 1.000000     H
    H   1.0     0.120241     0.876731     0.285134  Biso 1.000000     H
    H   1.0     0.225345     0.741248     0.055141  Biso 1.000000     H
    H   1.0     0.236052     0.883636     0.058334  Biso 1.000000     H
    H   1.0     0.050842     0.711766     0.400988  Biso 1.000000     H
    H   1.0     0.030936     0.803713     0.349271  Biso 1.000000     H
    H   1.0     0.123954     0.781899     0.388823  Biso 1.000000     H
    C   1.0     0.827549     0.825721     0.607436  Biso 1.000000     C
    C   1.0     0.829561     0.827041     0.521230  Biso 1.000000     C
    C   1.0     0.879537     0.875593     0.476017  Biso 1.000000     C
    C   1.0     0.880892     0.877553     0.395233  Biso 1.000000     C
    C   1.0     0.832198     0.830426     0.358655  Biso 1.000000     C
    C   1.0     0.782496     0.782975     0.405047  Biso 1.000000     C
    C   1.0     0.780854     0.780528     0.485528  Biso 1.000000     C
    C   1.0     0.973175     0.976397     0.381702  Biso 1.000000     C
    C   1.0     0.822906     0.813490     0.027757  Biso 1.000000     C
    C   1.0     0.827983     0.819686     0.112451  Biso 1.000000     C
    C   1.0     0.765705     0.856734     0.153767  Biso 1.000000     C
    C   1.0     0.767579     0.861860     0.233472  Biso 1.000000     C
    C   1.0     0.832607     0.830150     0.272993  Biso 1.000000     C
    C   1.0     0.894928     0.795263     0.230172  Biso 1.000000     C
    C   1.0     0.893197     0.789197     0.150598  Biso 1.000000     C
    C   1.0     0.639976     0.923837     0.240358  Biso 1.000000     C
    C   1.0     0.608258     0.827716     0.824586  Biso 1.000000     C
    C   1.0     0.521753     0.830352     0.826093  Biso 1.000000     C
    C   1.0     0.477465     0.879455     0.875091  Biso 1.000000     C
    C   1.0     0.396448     0.881391     0.877151  Biso 1.000000     C
    C   1.0     0.358636     0.834020     0.829829  Biso 1.000000     C
    C   1.0     0.404133     0.785243     0.781880  Biso 1.000000     C
    C   1.0     0.484837     0.783131     0.779236  Biso 1.000000     C
    C   1.0     0.384728     0.972228     0.976092  Biso 1.000000     C
    C   1.0     0.026246     0.825387     0.813876  Biso 1.000000     C
    C   1.0     0.111362     0.830515     0.819622  Biso 1.000000     C
    C   1.0     0.152943     0.767853     0.856791  Biso 1.000000     C
    C   1.0     0.232951     0.769496     0.861760  Biso 1.000000     C
    C   1.0     0.272651     0.834734     0.829719  Biso 1.000000     C
    C   1.0     0.229634     0.897372     0.794590  Biso 1.000000     C
    C   1.0     0.149702     0.895882     0.788744  Biso 1.000000     C
    C   1.0     0.239455     0.641581     0.924900  Biso 1.000000     C
    C   1.0     0.824645     0.608976     0.827650  Biso 1.000000     C
    C   1.0     0.827152     0.522442     0.829156  Biso 1.000000     C
    C   1.0     0.875239     0.477550     0.879430  Biso 1.000000     C
    C   1.0     0.878082     0.396488     0.880475  Biso 1.000000     C
    C   1.0     0.832314     0.359215     0.831113  Biso 1.000000     C
    C   1.0     0.785436     0.405382     0.780989  Biso 1.000000     C
    C   1.0     0.782105     0.486108     0.779682  Biso 1.000000     C
    C   1.0     0.975689     0.384284     0.973398  Biso 1.000000     C
    C   1.0     0.813327     0.027042     0.822098  Biso 1.000000     C
    C   1.0     0.820389     0.112054     0.827038  Biso 1.000000     C
    C   1.0     0.856718     0.154476     0.764264  Biso 1.000000     C
    C   1.0     0.862460     0.234473     0.766028  Biso 1.000000     C
    C   1.0     0.832126     0.273237     0.831514  Biso 1.000000     C
    C   1.0     0.798106     0.229283     0.894336  Biso 1.000000     C
    C   1.0     0.791412     0.149459     0.892695  Biso 1.000000     C
    C   1.0     0.924127     0.242624     0.638345  Biso 1.000000     C
    C   1.0     0.172451     0.174289     0.392565  Biso 1.000000     C
    C   1.0     0.170438     0.172970     0.478774  Biso 1.000000     C
    C   1.0     0.120452     0.124427     0.523989  Biso 1.000000     C
    C   1.0     0.119098     0.122464     0.604773  Biso 1.000000     C
    C   1.0     0.167804     0.169577     0.641354  Biso 1.000000     C
    C   1.0     0.217511     0.217022     0.594962  Biso 1.000000     C
    C   1.0     0.219153     0.219473     0.514480  Biso 1.000000     C
    C   1.0     0.026797     0.023631     0.618306  Biso 1.000000     C
    C   1.0     0.177103     0.186557     0.972251  Biso 1.000000     C
    C   1.0     0.172021     0.180331     0.887561  Biso 1.000000     C
    C   1.0     0.234304     0.143288     0.846245  Biso 1.000000     C
    C   1.0     0.232429     0.138156     0.766540  Biso 1.000000     C
    C   1.0     0.167394     0.169850     0.727018  Biso 1.000000     C
    C   1.0     0.105069     0.204728     0.769841  Biso 1.000000     C
    C   1.0     0.106801     0.210801     0.849414  Biso 1.000000     C
    C   1.0     0.360041     0.076198     0.759654  Biso 1.000000     C
    C   1.0     0.391740     0.172434     0.175256  Biso 1.000000     C
    C   1.0     0.478243     0.169783     0.173801  Biso 1.000000     C
    C   1.0     0.522543     0.120608     0.124886  Biso 1.000000     C
    C   1.0     0.603559     0.118688     0.122826  Biso 1.000000     C
    C   1.0     0.641361     0.166134     0.170082  Biso 1.000000     C
    C   1.0     0.595850     0.214976     0.217958  Biso 1.000000     C
    C   1.0     0.515147     0.217079     0.220595  Biso 1.000000     C
    C   1.0     0.615281     0.027735     0.023996  Biso 1.000000     C
    C   1.0     0.973747     0.174670     0.186138  Biso 1.000000     C
    C   1.0     0.888630     0.169578     0.180370  Biso 1.000000     C
    C   1.0     0.847074     0.232275     0.143233  Biso 1.000000     C
    C   1.0     0.767067     0.230659     0.138237  Biso 1.000000     C
    C   1.0     0.727342     0.165413     0.170217  Biso 1.000000     C
    C   1.0     0.770339     0.102741     0.205314  Biso 1.000000     C
    C   1.0     0.850268     0.104204     0.211190  Biso 1.000000     C
    C   1.0     0.760617     0.358592     0.075126  Biso 1.000000     C
    C   1.0     0.175332     0.391058     0.172364  Biso 1.000000     C
    C   1.0     0.172831     0.477590     0.170856  Biso 1.000000     C
    C   1.0     0.124751     0.522484     0.120579  Biso 1.000000     C
    C   1.0     0.121911     0.603545     0.119535  Biso 1.000000     C
    C   1.0     0.167675     0.640814     0.168904  Biso 1.000000     C
    C   1.0     0.214550     0.594645     0.219030  Biso 1.000000     C
    C   1.0     0.217878     0.513919     0.220335  Biso 1.000000     C
    C   1.0     0.024315     0.615746     0.026605  Biso 1.000000     C
    C   1.0     0.186648     0.972986     0.177915  Biso 1.000000     C
    C   1.0     0.179590     0.887974     0.172980  Biso 1.000000     C
    C   1.0     0.143258     0.845552     0.235752  Biso 1.000000     C
    C   1.0     0.137522     0.765554     0.233989  Biso 1.000000     C
    C   1.0     0.167862     0.726791     0.168506  Biso 1.000000     C
    C   1.0     0.201891     0.770743     0.105688  Biso 1.000000     C
    C   1.0     0.208578     0.850568     0.107327  Biso 1.000000     C
    C   1.0     0.075854     0.757394     0.361674  Biso 1.000000     C
    O   1.0     0.780346     0.780703     0.645018  Biso 1.000000     O
    O   1.0     0.873113     0.869814     0.637035  Biso 1.000000     O
    O   1.0     0.927203     0.923768     0.346840  Biso 1.000000     O
    O   1.0     0.764271     0.848402     0.996388  Biso 1.000000     O
    O   1.0     0.877062     0.773231     0.992728  Biso 1.000000     O
    O   1.0     0.709100     0.897028     0.277815  Biso 1.000000     O
    O   1.0     0.644876     0.782261     0.778133  Biso 1.000000     O
    O   1.0     0.638985     0.870864     0.869880  Biso 1.000000     O
    O   1.0     0.348949     0.927089     0.923643  Biso 1.000000     O
    O   1.0     0.995417     0.766338     0.849519  Biso 1.000000     O
    O   1.0     0.990440     0.879505     0.773435  Biso 1.000000     O
    O   1.0     0.277395     0.710480     0.896943  Biso 1.000000     O
    O   1.0     0.779872     0.645880     0.780045  Biso 1.000000     O
    O   1.0     0.867262     0.639423     0.873728  Biso 1.000000     O
    O   1.0     0.923992     0.348563     0.927207  Biso 1.000000     O
    O   1.0     0.846814     0.996448     0.762827  Biso 1.000000     O
    O   1.0     0.773716     0.991110     0.876889  Biso 1.000000     O
    O   1.0     0.896859     0.279833     0.706942  Biso 1.000000     O
    O   1.0     0.818410     0.818367     0.818067  Biso 1.000000     O
    O   1.0     0.219678     0.219283     0.354976  Biso 1.000000     O
    O   1.0     0.126868     0.130215     0.362972  Biso 1.000000     O
    O   1.0     0.072780     0.076255     0.653165  Biso 1.000000     O
    O   1.0     0.235766     0.151703     0.003623  Biso 1.000000     O
    O   1.0     0.122921     0.226783     0.007280  Biso 1.000000     O
    O   1.0     0.290910     0.102990     0.722198  Biso 1.000000     O
    O   1.0     0.355109     0.218154     0.221437  Biso 1.000000     O
    O   1.0     0.361026     0.129053     0.130173  Biso 1.000000     O
    O   1.0     0.651063     0.072938     0.076387  Biso 1.000000     O
    O   1.0     0.004601     0.233712     0.150510  Biso 1.000000     O
    O   1.0     0.009533     0.120532     0.226572  Biso 1.000000     O
    O   1.0     0.722649     0.289705     0.103072  Biso 1.000000     O
    O   1.0     0.220084     0.354157     0.219989  Biso 1.000000     O
    O   1.0     0.132729     0.360608     0.126274  Biso 1.000000     O
    O   1.0     0.076001     0.651472     0.072803  Biso 1.000000     O
    O   1.0     0.153164     0.003578     0.237189  Biso 1.000000     O
    O   1.0     0.226250     0.008921     0.123118  Biso 1.000000     O
    O   1.0     0.103120     0.720192     0.293071  Biso 1.000000     O
    O   1.0     0.181581     0.181644     0.181946  Biso 1.000000     O
   Zn   1.0     0.880416     0.887063     0.747248  Biso 1.000000    Zn
   Zn   1.0     0.749584     0.880503     0.886608  Biso 1.000000    Zn
   Zn   1.0     0.886288     0.749802     0.882831  Biso 1.000000    Zn
   Zn   1.0     0.756446     0.757211     0.756642  Biso 1.000000    Zn
   Zn   1.0     0.119560     0.112960     0.252757  Biso 1.000000    Zn
   Zn   1.0     0.250413     0.119522     0.113398  Biso 1.000000    Zn
   Zn   1.0     0.113715     0.250226     0.117175  Biso 1.000000    Zn
   Zn   1.0     0.243535     0.242826     0.243353  Biso 1.000000    Zn
