#======================================================================

# CRYSTAL DATA

#----------------------------------------------------------------------

data_VESTA_phase_1


_pd_phase_name                         MOF
_cell_length_a                         10.41200
_cell_length_b                         18.78200
_cell_length_c                         27.66900
_cell_angle_alpha                      90.00200
_cell_angle_beta                       89.09500
_cell_angle_gamma                      89.99400
_symmetry_space_group_name_H-M         "P 1"
_symmetry_Int_Tables_number            1

loop_
_symmetry_equiv_pos_as_xyz
   "x, y, z"

loop_
   _atom_site_label
   _atom_site_occupancy
   _atom_site_fract_x
   _atom_site_fract_y
   _atom_site_fract_z
   _atom_site_adp_type
   _atom_site_B_iso_or_equiv
   _atom_site_type_symbol
    H   1.0     0.356611     0.675389     0.516644  Biso 1.000000     H
    H   1.0     0.856629     0.675396     0.516630  Biso 1.000000     H
    H   1.0     0.241678     0.516598     0.413741  Biso 1.000000     H
    H   1.0     0.741675     0.516608     0.413729  Biso 1.000000     H
    H   1.0     0.067169     0.597575     0.385641  Biso 1.000000     H
    H   1.0     0.567151     0.597582     0.385638  Biso 1.000000     H
    H   1.0     0.036470     0.715828     0.424015  Biso 1.000000     H
    H   1.0     0.536449     0.715831     0.424019  Biso 1.000000     H
    H   1.0    -0.004206     0.829486     0.664442  Biso 1.000000     H
    H   1.0     0.495774     0.829493     0.664435  Biso 1.000000     H
    H   1.0     0.123039     0.890266     0.806025  Biso 1.000000     H
    H   1.0     0.623044     0.890250     0.806018  Biso 1.000000     H
    H   1.0     0.294691     0.965241     0.768433  Biso 1.000000     H
    H   1.0     0.794712     0.965215     0.768428  Biso 1.000000     H
    H   1.0     0.321991     0.967701     0.678620  Biso 1.000000     H
    H   1.0     0.822007     0.967679     0.678615  Biso 1.000000     H
    H   1.0     0.299422     0.667084     0.889561  Biso 1.000000     H
    H   1.0     0.799425     0.667081     0.889569  Biso 1.000000     H
    H   1.0     0.085170     0.655673     0.758000  Biso 1.000000     H
    H   1.0     0.585170     0.655687     0.758008  Biso 1.000000     H
    H   1.0     0.437322     0.566703     0.796382  Biso 1.000000     H
    H   1.0     0.937310     0.566694     0.796378  Biso 1.000000     H
    H   1.0     0.471409     0.528723     0.881544  Biso 1.000000     H
    H   1.0     0.971398     0.528723     0.881543  Biso 1.000000     H
    H   1.0     0.143209     0.175435     0.983327  Biso 1.000000     H
    H   1.0     0.643249     0.175420     0.983359  Biso 1.000000     H
    H   1.0     0.257869     0.016573     0.086230  Biso 1.000000     H
    H   1.0     0.757950     0.016614     0.086298  Biso 1.000000     H
    H   1.0     0.432447     0.097456     0.114362  Biso 1.000000     H
    H   1.0     0.932498     0.097531     0.114414  Biso 1.000000     H
    H   1.0     0.463312     0.215707     0.076007  Biso 1.000000     H
    H   1.0     0.963334     0.215764     0.076034  Biso 1.000000     H
    H   1.0     0.504022     0.329530     0.835665  Biso 1.000000     H
    H   1.0     0.000000     0.329524     0.835668  Biso 1.000000     H
    H   1.0     0.376565     0.390384     0.694128  Biso 1.000000     H
    H   1.0     0.876573     0.390376     0.694128  Biso 1.000000     H
    H   1.0     0.204908     0.465321     0.731780  Biso 1.000000     H
    H   1.0     0.704914     0.465314     0.731779  Biso 1.000000     H
    H   1.0     0.177731     0.467737     0.821594  Biso 1.000000     H
    H   1.0     0.677731     0.467731     0.821593  Biso 1.000000     H
    H   1.0     0.200340     0.167132     0.610528  Biso 1.000000     H
    H   1.0     0.700340     0.167142     0.610521  Biso 1.000000     H
    H   1.0     0.414525     0.155761     0.742109  Biso 1.000000     H
    H   1.0     0.914513     0.155775     0.742104  Biso 1.000000     H
    H   1.0     0.062411     0.066761     0.703757  Biso 1.000000     H
    H   1.0     0.562416     0.066756     0.703757  Biso 1.000000     H
    H   1.0     0.028358     0.028757     0.618590  Biso 1.000000     H
    H   1.0     0.528361     0.028757     0.618589  Biso 1.000000     H
    H   1.0     0.143206     0.324563     0.483350  Biso 1.000000     H
    H   1.0     0.643191     0.324560     0.483363  Biso 1.000000     H
    H   1.0     0.257897     0.483377     0.586276  Biso 1.000000     H
    H   1.0     0.757908     0.483371     0.586285  Biso 1.000000     H
    H   1.0     0.432443     0.402446     0.614401  Biso 1.000000     H
    H   1.0     0.932461     0.402440     0.614404  Biso 1.000000     H
    H   1.0     0.463300     0.284208     0.576022  Biso 1.000000     H
    H   1.0     0.963315     0.284204     0.576019  Biso 1.000000     H
    H   1.0     0.504004     0.170458     0.335626  Biso 1.000000     H
    H   1.0     0.000000     0.170460     0.335634  Biso 1.000000     H
    H   1.0     0.376673     0.109628     0.194067  Biso 1.000000     H
    H   1.0     0.876669     0.109632     0.194075  Biso 1.000000     H
    H   1.0     0.205037     0.034673     0.231692  Biso 1.000000     H
    H   1.0     0.705029     0.034679     0.231698  Biso 1.000000     H
    H   1.0     0.177790     0.032239     0.321503  Biso 1.000000     H
    H   1.0     0.677788     0.032241     0.321510  Biso 1.000000     H
    H   1.0     0.200406     0.332869     0.110547  Biso 1.000000     H
    H   1.0     0.700415     0.332864     0.110539  Biso 1.000000     H
    H   1.0     0.414548     0.344209     0.242137  Biso 1.000000     H
    H   1.0     0.914548     0.344204     0.242132  Biso 1.000000     H
    H   1.0     0.062444     0.433211     0.203797  Biso 1.000000     H
    H   1.0     0.562443     0.433206     0.203799  Biso 1.000000     H
    H   1.0     0.028394     0.471232     0.118633  Biso 1.000000     H
    H   1.0     0.528394     0.471221     0.118632  Biso 1.000000     H
    H   1.0     0.356639     0.824588     0.016654  Biso 1.000000     H
    H   1.0     0.856600     0.824601     0.016619  Biso 1.000000     H
    H   1.0     0.241736     0.983420     0.913765  Biso 1.000000     H
    H   1.0     0.741661     0.983373     0.913697  Biso 1.000000     H
    H   1.0     0.067199     0.902484     0.885663  Biso 1.000000     H
    H   1.0     0.567144     0.902408     0.885611  Biso 1.000000     H
    H   1.0     0.036473     0.784229     0.924024  Biso 1.000000     H
    H   1.0     0.536448     0.784172     0.923998  Biso 1.000000     H
    H   1.0    -0.004213     0.670498     0.164412  Biso 1.000000     H
    H   1.0     0.495779     0.670506     0.164409  Biso 1.000000     H
    H   1.0     0.123134     0.609690     0.305974  Biso 1.000000     H
    H   1.0     0.623135     0.609708     0.305974  Biso 1.000000     H
    H   1.0     0.294815     0.534737     0.268356  Biso 1.000000     H
    H   1.0     0.794815     0.534755     0.268357  Biso 1.000000     H
    H   1.0     0.322068     0.532299     0.178542  Biso 1.000000     H
    H   1.0     0.822066     0.532312     0.178543  Biso 1.000000     H
    H   1.0     0.299470     0.832893     0.389566  Biso 1.000000     H
    H   1.0     0.799476     0.832893     0.389572  Biso 1.000000     H
    H   1.0     0.085170     0.844324     0.258015  Biso 1.000000     H
    H   1.0     0.585179     0.844311     0.258022  Biso 1.000000     H
    H   1.0     0.437330     0.933301     0.296408  Biso 1.000000     H
    H   1.0     0.937313     0.933313     0.296406  Biso 1.000000     H
    H   1.0     0.471428     0.971268     0.381572  Biso 1.000000     H
    H   1.0     0.971417     0.971275     0.381570  Biso 1.000000     H
    C   1.0     0.178249     0.774768     0.495421  Biso 1.000000     C
    C   1.0     0.678252     0.774774     0.495414  Biso 1.000000     C
    C   1.0     0.195028     0.702993     0.472625  Biso 1.000000     C
    C   1.0     0.695034     0.703001     0.472617  Biso 1.000000     C
    C   1.0     0.293274     0.658000     0.488089  Biso 1.000000     C
    C   1.0     0.793270     0.658003     0.488083  Biso 1.000000     C
    C   1.0     0.309730     0.590413     0.467343  Biso 1.000000     C
    C   1.0     0.809728     0.590420     0.467331  Biso 1.000000     C
    C   1.0     0.228480     0.569099     0.429776  Biso 1.000000     C
    C   1.0     0.728452     0.569100     0.429775  Biso 1.000000     C
    C   1.0     0.131479     0.614344     0.414176  Biso 1.000000     C
    C   1.0     0.631480     0.614357     0.414165  Biso 1.000000     C
    C   1.0     0.113473     0.680885     0.435661  Biso 1.000000     C
    C   1.0     0.613463     0.680892     0.435658  Biso 1.000000     C
    C   1.0     0.410682     0.542322     0.484788  Biso 1.000000     C
    C   1.0     0.910674     0.542327     0.484778  Biso 1.000000     C
    C   1.0     0.175131     0.902975     0.612083  Biso 1.000000     C
    C   1.0     0.675119     0.902977     0.612077  Biso 1.000000     C
    C   1.0     0.160436     0.899071     0.666113  Biso 1.000000     C
    C   1.0     0.660434     0.899065     0.666107  Biso 1.000000     C
    C   1.0     0.062155     0.858348     0.687243  Biso 1.000000     C
    C   1.0     0.562154     0.858339     0.687237  Biso 1.000000     C
    C   1.0     0.049596     0.854060     0.737769  Biso 1.000000     C
    C   1.0     0.549576     0.854060     0.737762  Biso 1.000000     C
    C   1.0     0.133445     0.893466     0.766900  Biso 1.000000     C
    C   1.0     0.633454     0.893446     0.766893  Biso 1.000000     C
    C   1.0     0.229663     0.935069     0.745696  Biso 1.000000     C
    C   1.0     0.729673     0.935049     0.745691  Biso 1.000000     C
    C   1.0     0.245001     0.936934     0.695519  Biso 1.000000     C
    C   1.0     0.745011     0.936918     0.695514  Biso 1.000000     C
    C   1.0     0.449749     0.808854     0.760177  Biso 1.000000     C
    C   1.0     0.949759     0.808853     0.760184  Biso 1.000000     C
    C   1.0     0.285001     0.722397     0.799793  Biso 1.000000     C
    C   1.0     0.785012     0.722394     0.799801  Biso 1.000000     C
    C   1.0     0.167970     0.566659     0.939741  Biso 1.000000     C
    C   1.0     0.667956     0.566661     0.939748  Biso 1.000000     C
    C   1.0     0.138844     0.594465     0.890467  Biso 1.000000     C
    C   1.0     0.638840     0.594465     0.890473  Biso 1.000000     C
    C   1.0     0.219480     0.645697     0.869304  Biso 1.000000     C
    C   1.0     0.719496     0.645687     0.869309  Biso 1.000000     C
    C   1.0     0.199166     0.668840     0.821886  Biso 1.000000     C
    C   1.0     0.699161     0.668847     0.821896  Biso 1.000000     C
    C   1.0     0.098262     0.638973     0.795310  Biso 1.000000     C
    C   1.0     0.598276     0.638972     0.795314  Biso 1.000000     C
    C   1.0     0.016282     0.589152     0.816813  Biso 1.000000     C
    C   1.0     0.516273     0.589164     0.816819  Biso 1.000000     C
    C   1.0     0.034954     0.567538     0.864470  Biso 1.000000     C
    C   1.0     0.534955     0.567538     0.864473  Biso 1.000000     C
    C   1.0     0.321653     0.274742     0.004606  Biso 1.000000     C
    C   1.0     0.821653     0.274754     0.004620  Biso 1.000000     C
    C   1.0     0.304783     0.202956     0.027376  Biso 1.000000     C
    C   1.0     0.804798     0.202981     0.027408  Biso 1.000000     C
    C   1.0     0.206504     0.158007     0.011890  Biso 1.000000     C
    C   1.0     0.706551     0.158010     0.011924  Biso 1.000000     C
    C   1.0     0.189960     0.090424     0.032627  Biso 1.000000     C
    C   1.0     0.690029     0.090436     0.032678  Biso 1.000000     C
    C   1.0     0.271168     0.069063     0.070196  Biso 1.000000     C
    C   1.0     0.771241     0.069096     0.070250  Biso 1.000000     C
    C   1.0     0.368176     0.114269     0.085824  Biso 1.000000     C
    C   1.0     0.868214     0.114327     0.085876  Biso 1.000000     C
    C   1.0     0.386281     0.180803     0.064346  Biso 1.000000     C
    C   1.0     0.886304     0.180851     0.064383  Biso 1.000000     C
    C   1.0     0.088966     0.042368     0.015184  Biso 1.000000     C
    C   1.0     0.589076     0.042361     0.015226  Biso 1.000000     C
    C   1.0     0.324887     0.403038     0.888099  Biso 1.000000     C
    C   1.0     0.824883     0.403029     0.888100  Biso 1.000000     C
    C   1.0     0.339346     0.399113     0.834057  Biso 1.000000     C
    C   1.0     0.839343     0.399105     0.834058  Biso 1.000000     C
    C   1.0     0.437601     0.358396     0.812889  Biso 1.000000     C
    C   1.0     0.937602     0.358389     0.812891  Biso 1.000000     C
    C   1.0     0.450103     0.354134     0.762360  Biso 1.000000     C
    C   1.0     0.950110     0.354131     0.762363  Biso 1.000000     C
    C   1.0     0.366201     0.393554     0.733256  Biso 1.000000     C
    C   1.0     0.866209     0.393548     0.733256  Biso 1.000000     C
    C   1.0     0.269979     0.435133     0.754494  Biso 1.000000     C
    C   1.0     0.769982     0.435124     0.754494  Biso 1.000000     C
    C   1.0     0.254713     0.436976     0.804676  Biso 1.000000     C
    C   1.0     0.754712     0.436969     0.804676  Biso 1.000000     C
    C   1.0     0.049944     0.308929     0.739929  Biso 1.000000     C
    C   1.0     0.549926     0.308933     0.739925  Biso 1.000000     C
    C   1.0     0.214704     0.222471     0.700299  Biso 1.000000     C
    C   1.0     0.714695     0.222483     0.700295  Biso 1.000000     C
    C   1.0     0.331880     0.066671     0.560398  Biso 1.000000     C
    C   1.0     0.831882     0.066678     0.560394  Biso 1.000000     C
    C   1.0     0.360933     0.094507     0.609660  Biso 1.000000     C
    C   1.0     0.860927     0.094514     0.609657  Biso 1.000000     C
    C   1.0     0.280271     0.145754     0.630799  Biso 1.000000     C
    C   1.0     0.780258     0.145758     0.630795  Biso 1.000000     C
    C   1.0     0.300570     0.168916     0.678213  Biso 1.000000     C
    C   1.0     0.800564     0.168930     0.678207  Biso 1.000000     C
    C   1.0     0.401461     0.139048     0.704801  Biso 1.000000     C
    C   1.0     0.901439     0.139053     0.704798  Biso 1.000000     C
    C   1.0     0.483469     0.089215     0.683314  Biso 1.000000     C
    C   1.0     0.983458     0.089225     0.683311  Biso 1.000000     C
    C   1.0     0.464817     0.067581     0.635662  Biso 1.000000     C
    C   1.0     0.964804     0.067584     0.635661  Biso 1.000000     C
    C   1.0     0.321647     0.225226     0.504600  Biso 1.000000     C
    C   1.0     0.821635     0.225222     0.504605  Biso 1.000000     C
    C   1.0     0.304778     0.297000     0.527391  Biso 1.000000     C
    C   1.0     0.804767     0.296993     0.527400  Biso 1.000000     C
    C   1.0     0.206518     0.341972     0.511908  Biso 1.000000     C
    C   1.0     0.706520     0.341972     0.511914  Biso 1.000000     C
    C   1.0     0.189978     0.409550     0.532659  Biso 1.000000     C
    C   1.0     0.689982     0.409550     0.532667  Biso 1.000000     C
    C   1.0     0.271185     0.430888     0.570232  Biso 1.000000     C
    C   1.0     0.771209     0.430889     0.570233  Biso 1.000000     C
    C   1.0     0.368179     0.385659     0.585856  Biso 1.000000     C
    C   1.0     0.868183     0.385651     0.585864  Biso 1.000000     C
    C   1.0     0.386274     0.319128     0.564367  Biso 1.000000     C
    C   1.0     0.886279     0.319123     0.564371  Biso 1.000000     C
    C   1.0     0.089002     0.457624     0.515211  Biso 1.000000     C
    C   1.0     0.589003     0.457624     0.515220  Biso 1.000000     C
    C   1.0     0.324835     0.096951     0.388037  Biso 1.000000     C
    C   1.0     0.824833     0.096951     0.388043  Biso 1.000000     C
    C   1.0     0.339354     0.100873     0.333995  Biso 1.000000     C
    C   1.0     0.839349     0.100876     0.334002  Biso 1.000000     C
    C   1.0     0.437619     0.141586     0.312841  Biso 1.000000     C
    C   1.0     0.937614     0.141590     0.312849  Biso 1.000000     C
    C   1.0     0.450149     0.145858     0.262314  Biso 1.000000     C
    C   1.0     0.950150     0.145858     0.262322  Biso 1.000000     C
    C   1.0     0.366290     0.106443     0.233194  Biso 1.000000     C
    C   1.0     0.866292     0.106443     0.233201  Biso 1.000000     C
    C   1.0     0.270071     0.064861     0.254418  Biso 1.000000     C
    C   1.0     0.770063     0.064867     0.254424  Biso 1.000000     C
    C   1.0     0.254768     0.063008     0.304599  Biso 1.000000     C
    C   1.0     0.754764     0.063011     0.304605  Biso 1.000000     C
    C   1.0     0.049982     0.191062     0.239903  Biso 1.000000     C
    C   1.0     0.549975     0.191058     0.239895  Biso 1.000000     C
    C   1.0     0.214751     0.277515     0.200303  Biso 1.000000     C
    C   1.0     0.714755     0.277509     0.200298  Biso 1.000000     C
    C   1.0     0.331901     0.433333     0.060442  Biso 1.000000     C
    C   1.0     0.831907     0.433333     0.060436  Biso 1.000000     C
    C   1.0     0.360979     0.405484     0.109696  Biso 1.000000     C
    C   1.0     0.860978     0.405485     0.109692  Biso 1.000000     C
    C   1.0     0.280334     0.354232     0.130823  Biso 1.000000     C
    C   1.0     0.780329     0.354235     0.130818  Biso 1.000000     C
    C   1.0     0.300623     0.331067     0.178234  Biso 1.000000     C
    C   1.0     0.800626     0.331061     0.178228  Biso 1.000000     C
    C   1.0     0.401508     0.360920     0.204828  Biso 1.000000     C
    C   1.0     0.901491     0.360926     0.204825  Biso 1.000000     C
    C   1.0     0.483499     0.410760     0.183351  Biso 1.000000     C
    C   1.0     0.983494     0.410759     0.183348  Biso 1.000000     C
    C   1.0     0.464857     0.432398     0.135700  Biso 1.000000     C
    C   1.0     0.964847     0.432406     0.135699  Biso 1.000000     C
    C   1.0     0.178251     0.725242     0.995412  Biso 1.000000     C
    C   1.0     0.678241     0.725229     0.995398  Biso 1.000000     C
    C   1.0     0.195043     0.797024     0.972631  Biso 1.000000     C
    C   1.0     0.695026     0.796999     0.972599  Biso 1.000000     C
    C   1.0     0.293313     0.841993     0.988095  Biso 1.000000     C
    C   1.0     0.793266     0.841990     0.988058  Biso 1.000000     C
    C   1.0     0.309770     0.909582     0.967357  Biso 1.000000     C
    C   1.0     0.809714     0.909569     0.967304  Biso 1.000000     C
    C   1.0     0.228517     0.930922     0.929796  Biso 1.000000     C
    C   1.0     0.728442     0.930885     0.929744  Biso 1.000000     C
    C   1.0     0.131512     0.885694     0.914193  Biso 1.000000     C
    C   1.0     0.631477     0.885632     0.914138  Biso 1.000000     C
    C   1.0     0.113487     0.819154     0.935672  Biso 1.000000     C
    C   1.0     0.613459     0.819106     0.935636  Biso 1.000000     C
    C   1.0     0.410748     0.957653     0.984793  Biso 1.000000     C
    C   1.0     0.910646     0.957661     0.984750  Biso 1.000000     C
    C   1.0     0.175061     0.597012     0.112025  Biso 1.000000     C
    C   1.0     0.675059     0.597024     0.112024  Biso 1.000000     C
    C   1.0     0.160462     0.600920     0.166058  Biso 1.000000     C
    C   1.0     0.660464     0.600933     0.166057  Biso 1.000000     C
    C   1.0     0.062188     0.641646     0.187205  Biso 1.000000     C
    C   1.0     0.562173     0.641649     0.187202  Biso 1.000000     C
    C   1.0     0.049634     0.645914     0.237731  Biso 1.000000     C
    C   1.0     0.549630     0.645926     0.237728  Biso 1.000000     C
    C   1.0     0.133535     0.606512     0.266848  Biso 1.000000     C
    C   1.0     0.633520     0.606520     0.266847  Biso 1.000000     C
    C   1.0     0.229755     0.564911     0.245629  Biso 1.000000     C
    C   1.0     0.729760     0.564932     0.245630  Biso 1.000000     C
    C   1.0     0.245070     0.563059     0.195450  Biso 1.000000     C
    C   1.0     0.745069     0.563073     0.195451  Biso 1.000000     C
    C   1.0     0.449789     0.691126     0.260155  Biso 1.000000     C
    C   1.0     0.949790     0.691121     0.260158  Biso 1.000000     C
    C   1.0     0.285035     0.777588     0.299792  Biso 1.000000     C
    C   1.0     0.785046     0.777584     0.299796  Biso 1.000000     C
    C   1.0     0.167993     0.933315     0.439765  Biso 1.000000     C
    C   1.0     0.667985     0.933312     0.439770  Biso 1.000000     C
    C   1.0     0.138877     0.905521     0.390486  Biso 1.000000     C
    C   1.0     0.638875     0.905517     0.390491  Biso 1.000000     C
    C   1.0     0.219521     0.854288     0.369313  Biso 1.000000     C
    C   1.0     0.719532     0.854290     0.369318  Biso 1.000000     C
    C   1.0     0.199191     0.831146     0.321895  Biso 1.000000     C
    C   1.0     0.699203     0.831140     0.321901  Biso 1.000000     C
    C   1.0     0.098276     0.861024     0.295325  Biso 1.000000     C
    C   1.0     0.598292     0.861018     0.295329  Biso 1.000000     C
    C   1.0     0.016296     0.910849     0.316836  Biso 1.000000     C
    C   1.0     0.516294     0.910835     0.316840  Biso 1.000000     C
    C   1.0     0.034979     0.932458     0.364493  Biso 1.000000     C
    C   1.0     0.534978     0.932451     0.364496  Biso 1.000000     C
    N   1.0     0.430450     0.480373     0.460624  Biso 1.000000     N
    N   1.0     0.930371     0.480353     0.460638  Biso 1.000000     N
    N   1.0     0.478313     0.562784     0.523908  Biso 1.000000     N
    N   1.0     0.978309     0.562788     0.523897  Biso 1.000000     N
    N   1.0     0.371056     0.771874     0.730662  Biso 1.000000     N
    N   1.0     0.871093     0.771855     0.730669  Biso 1.000000     N
    N   1.0     0.286643     0.728020     0.750920  Biso 1.000000     N
    N   1.0     0.786652     0.728020     0.750928  Biso 1.000000     N
    N   1.0     0.353912     0.764740     0.829373  Biso 1.000000     N
    N   1.0     0.853939     0.764729     0.829381  Biso 1.000000     N
    N   1.0     0.437775     0.809112     0.809035  Biso 1.000000     N
    N   1.0     0.937796     0.809103     0.809043  Biso 1.000000     N
    N   1.0     0.069227     0.980397     0.039339  Biso 1.000000     N
    N   1.0     0.569386     0.980368     0.039360  Biso 1.000000     N
    N   1.0     0.021280     0.062852     0.976078  Biso 1.000000     N
    N   1.0     0.521462     0.062811     0.976094  Biso 1.000000     N
    N   1.0     0.128687     0.271963     0.769436  Biso 1.000000     N
    N   1.0     0.628668     0.271967     0.769432  Biso 1.000000     N
    N   1.0     0.213130     0.228128     0.749171  Biso 1.000000     N
    N   1.0     0.713098     0.228124     0.749167  Biso 1.000000     N
    N   1.0     0.145719     0.264789     0.670723  Biso 1.000000     N
    N   1.0     0.645693     0.264791     0.670718  Biso 1.000000     N
    N   1.0     0.061865     0.309172     0.691070  Biso 1.000000     N
    N   1.0     0.561831     0.309171     0.691065  Biso 1.000000     N
    N   1.0     0.069276     0.519590     0.539360  Biso 1.000000     N
    N   1.0     0.569335     0.519611     0.539349  Biso 1.000000     N
    N   1.0     0.021329     0.437148     0.476105  Biso 1.000000     N
    N   1.0     0.521334     0.437147     0.476112  Biso 1.000000     N
    N   1.0     0.128707     0.228010     0.269423  Biso 1.000000     N
    N   1.0     0.628713     0.227998     0.269416  Biso 1.000000     N
    N   1.0     0.213153     0.271847     0.249173  Biso 1.000000     N
    N   1.0     0.713098     0.271874     0.249170  Biso 1.000000     N
    N   1.0     0.145819     0.235196     0.170713  Biso 1.000000     N
    N   1.0     0.645848     0.235178     0.170707  Biso 1.000000     N
    N   1.0     0.061948     0.190820     0.191045  Biso 1.000000     N
    N   1.0     0.561904     0.190841     0.191036  Biso 1.000000     N
    N   1.0     0.430464     0.019634     0.960649  Biso 1.000000     N
    N   1.0     0.930296     0.019662     0.960623  Biso 1.000000     N
    N   1.0     0.478487     0.937156     0.023883  Biso 1.000000     N
    N   1.0     0.978285     0.937197     0.023873  Biso 1.000000     N
    N   1.0     0.371054     0.728103     0.230650  Biso 1.000000     N
    N   1.0     0.871094     0.728120     0.230653  Biso 1.000000     N
    N   1.0     0.286632     0.771953     0.250919  Biso 1.000000     N
    N   1.0     0.786656     0.771961     0.250923  Biso 1.000000     N
    N   1.0     0.353951     0.735227     0.329362  Biso 1.000000     N
    N   1.0     0.854005     0.735246     0.329367  Biso 1.000000     N
    N   1.0     0.437836     0.690864     0.309014  Biso 1.000000     N
    N   1.0     0.937862     0.690868     0.309018  Biso 1.000000     N
    O   1.0     0.272544     0.800187     0.518787  Biso 1.000000     O
    O   1.0     0.772539     0.800188     0.518789  Biso 1.000000     O
    O   1.0     0.071473     0.806878     0.489758  Biso 1.000000     O
    O   1.0     0.571465     0.806877     0.489760  Biso 1.000000     O
    O   1.0     0.284475     0.919911     0.594562  Biso 1.000000     O
    O   1.0     0.784460     0.919913     0.594554  Biso 1.000000     O
    O   1.0     0.076077     0.890340     0.587083  Biso 1.000000     O
    O   1.0     0.576064     0.890337     0.587079  Biso 1.000000     O
    O   1.0     0.279631     0.574977     0.955610  Biso 1.000000     O
    O   1.0     0.779620     0.574972     0.955616  Biso 1.000000     O
    O   1.0     0.077384     0.533897     0.963786  Biso 1.000000     O
    O   1.0     0.577377     0.533885     0.963787  Biso 1.000000     O
    O   1.0     0.227417     0.300206     0.981225  Biso 1.000000     O
    O   1.0     0.727418     0.300201     0.981229  Biso 1.000000     O
    O   1.0     0.428445     0.306815     0.010288  Biso 1.000000     O
    O   1.0     0.928450     0.306827     0.010287  Biso 1.000000     O
    O   1.0     0.215687     0.420066     0.905719  Biso 1.000000     O
    O   1.0     0.715675     0.420040     0.905720  Biso 1.000000     O
    O   1.0     0.424075     0.390347     0.913016  Biso 1.000000     O
    O   1.0     0.924076     0.390349     0.913016  Biso 1.000000     O
    O   1.0     0.220238     0.074988     0.544501  Biso 1.000000     O
    O   1.0     0.720241     0.074988     0.544495  Biso 1.000000     O
    O   1.0     0.422543     0.033882     0.536413  Biso 1.000000     O
    O   1.0     0.922542     0.033879     0.536414  Biso 1.000000     O
    O   1.0     0.227401     0.199779     0.481220  Biso 1.000000     O
    O   1.0     0.727397     0.199779     0.481218  Biso 1.000000     O
    O   1.0     0.428455     0.193149     0.510268  Biso 1.000000     O
    O   1.0     0.928451     0.193150     0.510266  Biso 1.000000     O
    O   1.0     0.215613     0.079934     0.405636  Biso 1.000000     O
    O   1.0     0.715616     0.079928     0.405644  Biso 1.000000     O
    O   1.0     0.423989     0.109633     0.412973  Biso 1.000000     O
    O   1.0     0.923988     0.109634     0.412977  Biso 1.000000     O
    O   1.0     0.220252     0.425017     0.044554  Biso 1.000000     O
    O   1.0     0.720260     0.425019     0.044546  Biso 1.000000     O
    O   1.0     0.422552     0.466115     0.036457  Biso 1.000000     O
    O   1.0     0.922552     0.466127     0.036457  Biso 1.000000     O
    O   1.0     0.272529     0.699806     0.018784  Biso 1.000000     O
    O   1.0     0.772515     0.699809     0.018781  Biso 1.000000     O
    O   1.0     0.071484     0.693142     0.989739  Biso 1.000000     O
    O   1.0     0.571468     0.693129     0.989740  Biso 1.000000     O
    O   1.0     0.284357     0.580066     0.094460  Biso 1.000000     O
    O   1.0     0.784355     0.580080     0.094459  Biso 1.000000     O
    O   1.0     0.075946     0.609664     0.087061  Biso 1.000000     O
    O   1.0     0.575934     0.609660     0.087062  Biso 1.000000     O
    O   1.0     0.279654     0.924992     0.455636  Biso 1.000000     O
    O   1.0     0.779647     0.924993     0.455641  Biso 1.000000     O
    O   1.0     0.077399     0.966083     0.463811  Biso 1.000000     O
    O   1.0     0.577391     0.966084     0.463814  Biso 1.000000     O
   La   1.0     0.423543     0.897158     0.523089  Biso 1.000000    La
   La   1.0     0.923542     0.897158     0.523089  Biso 1.000000    La
   La   1.0     0.076397     0.397189     0.977082  Biso 1.000000    La
   La   1.0     0.576384     0.397178     0.977082  Biso 1.000000    La
   La   1.0     0.076372     0.102804     0.477034  Biso 1.000000    La
   La   1.0     0.576360     0.102806     0.477033  Biso 1.000000    La
   La   1.0     0.423523     0.602831     0.023051  Biso 1.000000    La
   La   1.0     0.923523     0.602841     0.023051  Biso 1.000000    La
