#======================================================================

# CRYSTAL DATA

#----------------------------------------------------------------------

data_VESTA_phase_1


_pd_phase_name                         MOF
_cell_length_a                         13.08300
_cell_length_b                         18.27000
_cell_length_c                         18.30700
_cell_angle_alpha                      89.72300
_cell_angle_beta                       89.88100
_cell_angle_gamma                      90.08000
_symmetry_space_group_name_H-M         "P 1"
_symmetry_Int_Tables_number            1

loop_
_symmetry_equiv_pos_as_xyz
   "x, y, z"

loop_
   _atom_site_label
   _atom_site_occupancy
   _atom_site_fract_x
   _atom_site_fract_y
   _atom_site_fract_z
   _atom_site_adp_type
   _atom_site_B_iso_or_equiv
   _atom_site_type_symbol
    H   1.0     0.153283     0.236296     0.413517  Biso 1.000000     H
    H   1.0     0.302418     0.297010     0.212171  Biso 1.000000     H
    H   1.0     0.424862     0.373704     0.280991  Biso 1.000000     H
    H   1.0     0.409631     0.383177     0.417322  Biso 1.000000     H
    H   1.0     0.651371     0.763292     0.586137  Biso 1.000000     H
    H   1.0     0.800882     0.702576     0.786814  Biso 1.000000     H
    H   1.0     0.923152     0.626205     0.717374  Biso 1.000000     H
    H   1.0     0.907787     0.617011     0.581076  Biso 1.000000     H
    H   1.0     0.404778     0.087884     0.734092  Biso 1.000000     H
    H   1.0     0.554042     0.288885     0.794452  Biso 1.000000     H
    H   1.0     0.676297     0.219055     0.870855  Biso 1.000000     H
    H   1.0     0.660701     0.082381     0.880457  Biso 1.000000     H
    H   1.0     0.902410     0.912438     0.264507  Biso 1.000000     H
    H   1.0     0.051870     0.711986     0.203134  Biso 1.000000     H
    H   1.0     0.174402     0.782391     0.126913  Biso 1.000000     H
    H   1.0     0.158819     0.919060     0.117873  Biso 1.000000     H
    H   1.0     0.101187     0.265094     0.912592  Biso 1.000000     H
    H   1.0     0.951798     0.203444     0.712624  Biso 1.000000     H
    H   1.0     0.828420     0.127998     0.783073  Biso 1.000000     H
    H   1.0     0.843217     0.119753     0.919564  Biso 1.000000     H
    H   1.0     0.598909     0.736716     0.086000  Biso 1.000000     H
    H   1.0     0.450017     0.796426     0.287047  Biso 1.000000     H
    H   1.0     0.327112     0.872796     0.217817  Biso 1.000000     H
    H   1.0     0.341814     0.882453     0.081359  Biso 1.000000     H
    H   1.0     0.849190     0.412336     0.235258  Biso 1.000000     H
    H   1.0     0.699720     0.210999     0.296702  Biso 1.000000     H
    H   1.0     0.576989     0.280429     0.372804  Biso 1.000000     H
    H   1.0     0.592663     0.417040     0.381822  Biso 1.000000     H
    H   1.0     0.349417     0.588342     0.765171  Biso 1.000000     H
    H   1.0     0.198939     0.789002     0.704258  Biso 1.000000     H
    H   1.0     0.076170     0.718886     0.628953  Biso 1.000000     H
    H   1.0     0.092546     0.582383     0.619783  Biso 1.000000     H
    C   1.0     0.281516     0.309691     0.423613  Biso 1.000000     C
    C   1.0     0.212762     0.266392     0.384558  Biso 1.000000     C
    C   1.0     0.218283     0.262643     0.308359  Biso 1.000000     C
    C   1.0     0.295495     0.301318     0.271270  Biso 1.000000     C
    C   1.0     0.364866     0.344150     0.310171  Biso 1.000000     C
    C   1.0     0.357481     0.349043     0.386010  Biso 1.000000     C
    C   1.0     0.271999     0.315008     0.504787  Biso 1.000000     C
    C   1.0     0.140228     0.218410     0.268366  Biso 1.000000     C
    C   1.0     0.779527     0.690152     0.575421  Biso 1.000000     C
    C   1.0     0.710856     0.733244     0.614838  Biso 1.000000     C
    C   1.0     0.716593     0.736937     0.691025  Biso 1.000000     C
    C   1.0     0.793819     0.698310     0.727742  Biso 1.000000     C
    C   1.0     0.863116     0.655697     0.688473  Biso 1.000000     C
    C   1.0     0.855606     0.650920     0.612652  Biso 1.000000     C
    C   1.0     0.769851     0.685035     0.494259  Biso 1.000000     C
    C   1.0     0.639044     0.781333     0.731389  Biso 1.000000     C
    C   1.0     0.532886     0.076917     0.807195  Biso 1.000000     C
    C   1.0     0.464247     0.116535     0.764047  Biso 1.000000     C
    C   1.0     0.469875     0.192940     0.760352  Biso 1.000000     C
    C   1.0     0.547128     0.229625     0.798780  Biso 1.000000     C
    C   1.0     0.616349     0.190168     0.841432  Biso 1.000000     C
    C   1.0     0.608766     0.114148     0.846387  Biso 1.000000     C
    C   1.0     0.523175     0.995546     0.812792  Biso 1.000000     C
    C   1.0     0.391833     0.233800     0.716681  Biso 1.000000     C
    C   1.0     0.030675     0.923926     0.191277  Biso 1.000000     C
    C   1.0     0.961937     0.883990     0.234360  Biso 1.000000     C
    C   1.0     0.967581     0.807601     0.237767  Biso 1.000000     C
    C   1.0     0.044937     0.771242     0.199063  Biso 1.000000     C
    C   1.0     0.114317     0.811027     0.156507  Biso 1.000000     C
    C   1.0     0.106717     0.887048     0.151838  Biso 1.000000     C
    C   1.0     0.021079     0.005302     0.186333  Biso 1.000000     C
    C   1.0     0.889621     0.766380     0.281547  Biso 1.000000     C
    C   1.0     0.972138     0.192547     0.924236  Biso 1.000000     C
    C   1.0     0.041457     0.235097     0.884253  Biso 1.000000     C
    C   1.0     0.036051     0.238197     0.807989  Biso 1.000000     C
    C   1.0     0.958510     0.199612     0.771787  Biso 1.000000     C
    C   1.0     0.888624     0.157514     0.811601  Biso 1.000000     C
    C   1.0     0.895815     0.153288     0.887508  Biso 1.000000     C
    C   1.0     0.981438     0.187731     0.005493  Biso 1.000000     C
    C   1.0     0.114292     0.281663     0.766748  Biso 1.000000     C
    C   1.0     0.470213     0.809512     0.075491  Biso 1.000000     C
    C   1.0     0.539347     0.766486     0.114797  Biso 1.000000     C
    C   1.0     0.534019     0.762564     0.191028  Biso 1.000000     C
    C   1.0     0.456743     0.800877     0.227904  Biso 1.000000     C
    C   1.0     0.387086     0.843489     0.188771  Biso 1.000000     C
    C   1.0     0.394221     0.848514     0.112880  Biso 1.000000     C
    C   1.0     0.479435     0.814952     0.994259  Biso 1.000000     C
    C   1.0     0.612165     0.718533     0.231412  Biso 1.000000     C
    C   1.0     0.720813     0.422847     0.308461  Biso 1.000000     C
    C   1.0     0.789629     0.383495     0.265399  Biso 1.000000     C
    C   1.0     0.783950     0.307122     0.262055  Biso 1.000000     C
    C   1.0     0.706543     0.270231     0.300728  Biso 1.000000     C
    C   1.0     0.637128     0.309452     0.343248  Biso 1.000000     C
    C   1.0     0.644740     0.385433     0.347872  Biso 1.000000     C
    C   1.0     0.730190     0.504178     0.313554  Biso 1.000000     C
    C   1.0     0.861875     0.266352     0.218427  Biso 1.000000     C
    C   1.0     0.221123     0.577196     0.692461  Biso 1.000000     C
    C   1.0     0.289685     0.616916     0.735263  Biso 1.000000     C
    C   1.0     0.283675     0.693239     0.738659  Biso 1.000000     C
    C   1.0     0.206027     0.729785     0.700307  Biso 1.000000     C
    C   1.0     0.136604     0.690167     0.658199  Biso 1.000000     C
    C   1.0     0.144613     0.614209     0.653486  Biso 1.000000     C
    C   1.0     0.231838     0.495976     0.687237  Biso 1.000000     C
    C   1.0     0.361699     0.733940     0.782173  Biso 1.000000     C
    N   1.0     0.942624     0.130493     0.526818  Biso 1.000000     N
    N   1.0     0.440997     0.868667     0.472913  Biso 1.000000     N
    N   1.0     0.193482     0.974306     0.632402  Biso 1.000000     N
    N   1.0     0.691618     0.025665     0.367657  Biso 1.000000     N
    N   1.0     0.312384     0.367613     0.026126  Biso 1.000000     N
    N   1.0     0.810132     0.633489     0.973744  Biso 1.000000     N
    N   1.0     0.059761     0.525983     0.132362  Biso 1.000000     N
    N   1.0     0.561494     0.474270     0.869476  Biso 1.000000     N
    O   1.0     0.024839     0.125540     0.486857  Biso 1.000000     O
    O   1.0     0.951304     0.143887     0.594055  Biso 1.000000     O
    O   1.0     0.856648     0.122124     0.497008  Biso 1.000000     O
    O   1.0     0.204794     0.274840     0.537284  Biso 1.000000     O
    O   1.0     0.328652     0.359414     0.539142  Biso 1.000000     O
    O   1.0     0.087547     0.171785     0.302928  Biso 1.000000     O
    O   1.0     0.129114     0.231180     0.199247  Biso 1.000000     O
    O   1.0     0.523520     0.871946     0.512611  Biso 1.000000     O
    O   1.0     0.449166     0.855984     0.405486  Biso 1.000000     O
    O   1.0     0.355409     0.877977     0.503151  Biso 1.000000     O
    O   1.0     0.702526     0.725171     0.462217  Biso 1.000000     O
    O   1.0     0.826437     0.640856     0.459514  Biso 1.000000     O
    O   1.0     0.586792     0.828134     0.697001  Biso 1.000000     O
    O   1.0     0.627890     0.768722     0.800554  Biso 1.000000     O
    O   1.0     0.274876     0.000000     0.628022  Biso 1.000000     O
    O   1.0     0.203829     0.906585     0.644053  Biso 1.000000     O
    O   1.0     0.106811     0.000000     0.625148  Biso 1.000000     O
    O   1.0     0.457502     0.963162     0.771828  Biso 1.000000     O
    O   1.0     0.577975     0.960862     0.858317  Biso 1.000000     O
    O   1.0     0.337617     0.199779     0.671064  Biso 1.000000     O
    O   1.0     0.382180     0.303152     0.728897  Biso 1.000000     O
    O   1.0     0.772917    -0.015323     0.371908  Biso 1.000000     O
    O   1.0     0.702110     0.093423     0.356146  Biso 1.000000     O
    O   1.0     0.604855    -0.003560     0.374854  Biso 1.000000     O
    O   1.0     0.955687     0.037233     0.227916  Biso 1.000000     O
    O   1.0     0.075822     0.040402     0.140822  Biso 1.000000     O
    O   1.0     0.835799     0.799940     0.327878  Biso 1.000000     O
    O   1.0     0.879679     0.697145     0.268780  Biso 1.000000     O
    O   1.0     0.230842     0.371987    -0.014463  Biso 1.000000     O
    O   1.0     0.302283     0.356065     0.093788  Biso 1.000000     O
    O   1.0     0.398966     0.374764    -0.003363  Biso 1.000000     O
    O   1.0     0.048742     0.227882     0.037246  Biso 1.000000     O
    O   1.0     0.924504     0.143613     0.040589  Biso 1.000000     O
    O   1.0     0.168539     0.327835     0.800164  Biso 1.000000     O
    O   1.0     0.124043     0.269015     0.697624  Biso 1.000000     O
    O   1.0     0.728499     0.628230     0.000000  Biso 1.000000     O
    O   1.0     0.800203     0.646883     0.906450  Biso 1.000000     O
    O   1.0     0.896593     0.625359     0.000000  Biso 1.000000     O
    O   1.0     0.546728     0.774905     0.962163  Biso 1.000000     O
    O   1.0     0.422838     0.859217     0.959449  Biso 1.000000     O
    O   1.0     0.665759     0.672575     0.197215  Biso 1.000000     O
    O   1.0     0.622330     0.730721     0.300585  Biso 1.000000     O
    O   1.0     0.978423     0.484997     0.128030  Biso 1.000000     O
    O   1.0     0.049466     0.593597     0.143991  Biso 1.000000     O
    O   1.0     0.146481     0.496889     0.125099  Biso 1.000000     O
    O   1.0     0.795565     0.536920     0.272129  Biso 1.000000     O
    O   1.0     0.675173     0.538465     0.359063  Biso 1.000000     O
    O   1.0     0.915747     0.300179     0.171935  Biso 1.000000     O
    O   1.0     0.871742     0.197038     0.231453  Biso 1.000000     O
    O   1.0     0.479684     0.514615     0.874473  Biso 1.000000     O
    O   1.0     0.551867     0.406898     0.856115  Biso 1.000000     O
    O   1.0     0.647812     0.503714     0.877778  Biso 1.000000     O
    O   1.0     0.298151     0.464054     0.728124  Biso 1.000000     O
    O   1.0     0.177079     0.461147     0.641991  Biso 1.000000     O
    O   1.0     0.414308     0.699936     0.829021  Biso 1.000000     O
    O   1.0     0.373019     0.803066     0.768688  Biso 1.000000     O
   Cd   1.0     0.252400     0.347524     0.652946  Biso 1.000000    Cd
   Cd   1.0     0.750171     0.652748     0.346035  Biso 1.000000    Cd
   Cd   1.0     0.501118     0.847221     0.846051  Biso 1.000000    Cd
   Cd   1.0     0.000748     0.154080     0.153927  Biso 1.000000    Cd
   Ba   1.0     0.164982     0.152693     0.607882  Biso 1.000000    Ba
   Ba   1.0     0.662882     0.846924     0.390970  Biso 1.000000    Ba
   Ba   1.0     0.415930     0.892902     0.651099  Biso 1.000000    Ba
   Ba   1.0     0.915112     0.107084     0.348781  Biso 1.000000    Ba
   Ba   1.0     0.089153     0.348105     0.108573  Biso 1.000000    Ba
   Ba   1.0     0.587006     0.652914     0.892701  Biso 1.000000    Ba
   Ba   1.0     0.837336     0.607964     0.151462  Biso 1.000000    Ba
   Ba   1.0     0.339989     0.391411     0.847704  Biso 1.000000    Ba
