#======================================================================

# CRYSTAL DATA

#----------------------------------------------------------------------

data_VESTA_phase_1


_pd_phase_name                         MOF
_cell_length_a                         14.64800
_cell_length_b                         15.57700
_cell_length_c                         17.02100
_cell_angle_alpha                      89.99800
_cell_angle_beta                       89.99700
_cell_angle_gamma                      116.49600
_symmetry_space_group_name_H-M         "P 1"
_symmetry_Int_Tables_number            1

loop_
_symmetry_equiv_pos_as_xyz
   "x, y, z"

loop_
   _atom_site_label
   _atom_site_occupancy
   _atom_site_fract_x
   _atom_site_fract_y
   _atom_site_fract_z
   _atom_site_adp_type
   _atom_site_B_iso_or_equiv
   _atom_site_type_symbol
    H   1.0     0.327697     0.344975     0.482008  Biso 1.000000     H
    H   1.0     0.440613     0.201293     0.657832  Biso 1.000000     H
    H   1.0     0.545181     0.318337     0.656237  Biso 1.000000     H
    H   1.0     0.351607     0.096804     0.575925  Biso 1.000000     H
    H   1.0     0.647572     0.158657     0.484864  Biso 1.000000     H
    H   1.0     0.651810     0.416972     0.583267  Biso 1.000000     H
    H   1.0     0.897831     0.421828     0.443547  Biso 1.000000     H
    H   1.0     0.931600     0.521449     0.314408  Biso 1.000000     H
    H   1.0     0.850528     0.635232     0.290674  Biso 1.000000     H
    H   1.0     0.918550     0.634121     0.379836  Biso 1.000000     H
    H   1.0     0.993982     0.938895     0.369013  Biso 1.000000     H
    H   1.0     0.789688     0.970848     0.200323  Biso 1.000000     H
    H   1.0     0.749041     0.697401     0.256865  Biso 1.000000     H
    H   1.0     0.177159     0.773548     0.211784  Biso 1.000000     H
    H   1.0     0.192017     0.513147     0.205733  Biso 1.000000     H
    H   1.0     0.098746     0.071995     0.434490  Biso 1.000000     H
    H   1.0     0.000000     0.311082     0.476882  Biso 1.000000     H
    H   1.0     0.963884     0.186928     0.481977  Biso 1.000000     H
    H   1.0     0.172216     0.155018     0.982001  Biso 1.000000     H
    H   1.0     0.059324     0.298699     0.157829  Biso 1.000000     H
    H   1.0     0.954716     0.181665     0.156243  Biso 1.000000     H
    H   1.0     0.148351     0.403197     0.075930  Biso 1.000000     H
    H   1.0     0.852318     0.341362     0.984899  Biso 1.000000     H
    H   1.0     0.848133     0.083039     0.083258  Biso 1.000000     H
    H   1.0     0.602095     0.078183     0.943577  Biso 1.000000     H
    H   1.0     0.568285     0.978487     0.814489  Biso 1.000000     H
    H   1.0     0.649414     0.864730     0.790681  Biso 1.000000     H
    H   1.0     0.581382     0.865831     0.879843  Biso 1.000000     H
    H   1.0     0.505969     0.561064     0.869053  Biso 1.000000     H
    H   1.0     0.710254     0.529125     0.700328  Biso 1.000000     H
    H   1.0     0.750903     0.802567     0.756873  Biso 1.000000     H
    H   1.0     0.322825     0.726421     0.711799  Biso 1.000000     H
    H   1.0     0.307960     0.986820     0.705755  Biso 1.000000     H
    H   1.0     0.401226     0.427988     0.934503  Biso 1.000000     H
    H   1.0     0.481390     0.188937     0.976896  Biso 1.000000     H
    H   1.0     0.535995     0.313094     0.981985  Biso 1.000000     H
    H   1.0     0.672253     0.655008     0.517998  Biso 1.000000     H
    H   1.0     0.559337     0.798689     0.342174  Biso 1.000000     H
    H   1.0     0.454768     0.681646     0.343769  Biso 1.000000     H
    H   1.0     0.648340     0.903178     0.424080  Biso 1.000000     H
    H   1.0     0.352374     0.841326     0.515138  Biso 1.000000     H
    H   1.0     0.348139     0.583010     0.416737  Biso 1.000000     H
    H   1.0     0.102115     0.578154     0.556454  Biso 1.000000     H
    H   1.0     0.068342     0.478528     0.685589  Biso 1.000000     H
    H   1.0     0.149420     0.364747     0.709332  Biso 1.000000     H
    H   1.0     0.081397     0.365856     0.620170  Biso 1.000000     H
    H   1.0     0.005968     0.061082     0.630990  Biso 1.000000     H
    H   1.0     0.210260     0.029130     0.799683  Biso 1.000000     H
    H   1.0     0.250898     0.302576     0.743147  Biso 1.000000     H
    H   1.0     0.822791     0.226434     0.788226  Biso 1.000000     H
    H   1.0     0.807925     0.486832     0.794265  Biso 1.000000     H
    H   1.0     0.901206     0.927989     0.565511  Biso 1.000000     H
    H   1.0    -0.018559     0.688905     0.523119  Biso 1.000000     H
    H   1.0     0.036060     0.813059     0.518026  Biso 1.000000     H
    H   1.0     0.827734     0.844966     0.018000  Biso 1.000000     H
    H   1.0     0.940628     0.701282     0.842172  Biso 1.000000     H
    H   1.0     0.045236     0.818317     0.843759  Biso 1.000000     H
    H   1.0     0.851595     0.596786     0.924070  Biso 1.000000     H
    H   1.0     0.147629     0.658622     0.015108  Biso 1.000000     H
    H   1.0     0.151815     0.916944     0.916746  Biso 1.000000     H
    H   1.0     0.397852     0.921802     0.056430  Biso 1.000000     H
    H   1.0     0.431656     0.021490     0.185522  Biso 1.000000     H
    H   1.0     0.350535     0.135249     0.209322  Biso 1.000000     H
    H   1.0     0.418563     0.134145     0.120158  Biso 1.000000     H
    H   1.0     0.493978     0.438912     0.130948  Biso 1.000000     H
    H   1.0     0.289694     0.470854     0.299671  Biso 1.000000     H
    H   1.0     0.249038     0.197410     0.243124  Biso 1.000000     H
    H   1.0     0.677126     0.273561     0.288197  Biso 1.000000     H
    H   1.0     0.691984     0.013160     0.294255  Biso 1.000000     H
    H   1.0     0.598725     0.571997     0.065502  Biso 1.000000     H
    H   1.0     0.518557     0.811052     0.023109  Biso 1.000000     H
    H   1.0     0.463947     0.686896     0.018018  Biso 1.000000     H
    C   1.0     0.298968     0.267738     0.489683  Biso 1.000000     C
    C   1.0     0.352291     0.230433     0.535652  Biso 1.000000     C
    C   1.0     0.493052     0.258788     0.619741  Biso 1.000000     C
    C   1.0     0.313074     0.131088     0.543267  Biso 1.000000     C
    C   1.0     0.220125     0.072498     0.507475  Biso 1.000000     C
    C   1.0     0.172547     0.964865     0.518849  Biso 1.000000     C
    C   1.0     0.683932     0.236108     0.494031  Biso 1.000000     C
    C   1.0     0.636774     0.278877     0.540829  Biso 1.000000     C
    C   1.0     0.685023     0.378277     0.550041  Biso 1.000000     C
    C   1.0     0.780558     0.431043     0.515558  Biso 1.000000     C
    C   1.0     0.836543     0.538341     0.528136  Biso 1.000000     C
    C   1.0     0.823304     0.383121     0.470729  Biso 1.000000     C
    C   1.0     0.014356     0.400888     0.285538  Biso 1.000000     C
    C   1.0     0.056439     0.505722     0.262996  Biso 1.000000     C
    C   1.0     0.000000     0.558633     0.284208  Biso 1.000000     C
    C   1.0     0.048143     0.656636     0.266950  Biso 1.000000     C
    C   1.0     0.913877     0.677714     0.330760  Biso 1.000000     C
    C   1.0     0.876368     0.811592     0.317969  Biso 1.000000     C
    C   1.0     0.930295     0.910679     0.327867  Biso 1.000000     C
    C   1.0     0.899350     0.970180     0.285809  Biso 1.000000     C
    C   1.0     0.816631     0.927645     0.234416  Biso 1.000000     C
    C   1.0     0.794444     0.774326     0.265616  Biso 1.000000     C
    C   1.0     0.950934     0.078185     0.296128  Biso 1.000000     C
    C   1.0     0.141525     0.697422     0.226508  Biso 1.000000     C
    C   1.0     0.149226     0.551693     0.223421  Biso 1.000000     C
    C   1.0     0.171024     0.114966     0.463355  Biso 1.000000     C
    C   1.0     0.200957     0.232255     0.989677  Biso 1.000000     C
    C   1.0     0.147650     0.269564     0.035655  Biso 1.000000     C
    C   1.0     0.006879     0.241214     0.119742  Biso 1.000000     C
    C   1.0     0.186866     0.368909     0.043250  Biso 1.000000     C
    C   1.0     0.279851     0.427490     0.007492  Biso 1.000000     C
    C   1.0     0.327446     0.535087     0.018872  Biso 1.000000     C
    C   1.0     0.815972     0.263908     0.994059  Biso 1.000000     C
    C   1.0     0.863137     0.221139     0.040849  Biso 1.000000     C
    C   1.0     0.814920     0.121733     0.050031  Biso 1.000000     C
    C   1.0     0.719371     0.068969     0.015581  Biso 1.000000     C
    C   1.0     0.663399     0.961635     0.028149  Biso 1.000000     C
    C   1.0     0.676627     0.116886     0.970743  Biso 1.000000     C
    C   1.0     0.485558     0.099071     0.785653  Biso 1.000000     C
    C   1.0     0.443494     0.994222     0.763068  Biso 1.000000     C
    C   1.0     0.495656     0.941317     0.784250  Biso 1.000000     C
    C   1.0     0.451815     0.843319     0.766985  Biso 1.000000     C
    C   1.0     0.586063     0.822240     0.830772  Biso 1.000000     C
    C   1.0     0.623576     0.688373     0.817990  Biso 1.000000     C
    C   1.0     0.569653     0.589285     0.827897  Biso 1.000000     C
    C   1.0     0.600596     0.529787     0.785832  Biso 1.000000     C
    C   1.0     0.683305     0.572322     0.734421  Biso 1.000000     C
    C   1.0     0.705503     0.725641     0.765629  Biso 1.000000     C
    C   1.0     0.549005     0.421811     0.796137  Biso 1.000000     C
    C   1.0     0.358454     0.802544     0.726526  Biso 1.000000     C
    C   1.0     0.350756     0.948276     0.723434  Biso 1.000000     C
    C   1.0     0.328918     0.385023     0.963340  Biso 1.000000     C
    C   1.0     0.700982     0.732245     0.510322  Biso 1.000000     C
    C   1.0     0.647656     0.769549     0.464355  Biso 1.000000     C
    C   1.0     0.506897     0.741194     0.380265  Biso 1.000000     C
    C   1.0     0.686876     0.868894     0.456737  Biso 1.000000     C
    C   1.0     0.779823     0.927485     0.492529  Biso 1.000000     C
    C   1.0     0.827400     0.035118     0.481152  Biso 1.000000     C
    C   1.0     0.316014     0.763874     0.505971  Biso 1.000000     C
    C   1.0     0.363173     0.721105     0.459174  Biso 1.000000     C
    C   1.0     0.314924     0.621706     0.449961  Biso 1.000000     C
    C   1.0     0.219389     0.568939     0.484445  Biso 1.000000     C
    C   1.0     0.163404     0.461641     0.471867  Biso 1.000000     C
    C   1.0     0.176641     0.616862     0.529271  Biso 1.000000     C
    C   1.0     0.985585     0.599088     0.714453  Biso 1.000000     C
    C   1.0     0.943503     0.494256     0.737001  Biso 1.000000     C
    C   1.0    -0.004320     0.441346     0.715793  Biso 1.000000     C
    C   1.0     0.951802     0.343344     0.733055  Biso 1.000000     C
    C   1.0     0.086070     0.322264     0.669246  Biso 1.000000     C
    C   1.0     0.123577     0.188386     0.682038  Biso 1.000000     C
    C   1.0     0.069650     0.089298     0.672140  Biso 1.000000     C
    C   1.0     0.100602     0.029799     0.714193  Biso 1.000000     C
    C   1.0     0.183312     0.072332     0.765594  Biso 1.000000     C
    C   1.0     0.205498     0.225651     0.734394  Biso 1.000000     C
    C   1.0     0.049019     0.921794     0.703872  Biso 1.000000     C
    C   1.0     0.858422     0.302559     0.773499  Biso 1.000000     C
    C   1.0     0.850718     0.448287     0.776580  Biso 1.000000     C
    C   1.0     0.828928     0.885018     0.536645  Biso 1.000000     C
    C   1.0     0.798993     0.767729     0.010325  Biso 1.000000     C
    C   1.0     0.852296     0.730420     0.964343  Biso 1.000000     C
    C   1.0     0.993071     0.758768     0.880259  Biso 1.000000     C
    C   1.0     0.813085     0.631074     0.956753  Biso 1.000000     C
    C   1.0     0.720097     0.572495     0.992508  Biso 1.000000     C
    C   1.0     0.672499     0.464898     0.981130  Biso 1.000000     C
    C   1.0     0.183975     0.736076     0.005948  Biso 1.000000     C
    C   1.0     0.136811     0.778844     0.959156  Biso 1.000000     C
    C   1.0     0.185026     0.878250     0.949976  Biso 1.000000     C
    C   1.0     0.280577     0.931014     0.984423  Biso 1.000000     C
    C   1.0     0.336549     0.038347     0.971853  Biso 1.000000     C
    C   1.0     0.323318     0.883098     0.029266  Biso 1.000000     C
    C   1.0     0.514382     0.900904     0.214367  Biso 1.000000     C
    C   1.0     0.556448     0.005756     0.236943  Biso 1.000000     C
    C   1.0     0.504288     0.058661     0.215758  Biso 1.000000     C
    C   1.0     0.548131     0.156661     0.233017  Biso 1.000000     C
    C   1.0     0.413884     0.177737     0.169229  Biso 1.000000     C
    C   1.0     0.376368     0.311604     0.182009  Biso 1.000000     C
    C   1.0     0.430292     0.410692     0.172102  Biso 1.000000     C
    C   1.0     0.399354     0.470190     0.214170  Biso 1.000000     C
    C   1.0     0.316640     0.427655     0.265577  Biso 1.000000     C
    C   1.0     0.294439     0.274336     0.234368  Biso 1.000000     C
    C   1.0     0.450948     0.578167     0.203866  Biso 1.000000     C
    C   1.0     0.641494     0.197437     0.273474  Biso 1.000000     C
    C   1.0     0.649188     0.051703     0.276574  Biso 1.000000     C
    C   1.0     0.671035     0.614962     0.036667  Biso 1.000000     C
    N   1.0     0.774619     0.287442     0.459214  Biso 1.000000     N
    N   1.0     0.766284     0.832114     0.223894  Biso 1.000000     N
    N   1.0     0.210791     0.210761     0.453709  Biso 1.000000     N
    N   1.0     0.190158     0.645742     0.204898  Biso 1.000000     N
    N   1.0     0.725284     0.212572     0.959257  Biso 1.000000     N
    N   1.0     0.733663     0.667856     0.723905  Biso 1.000000     N
    N   1.0     0.289160     0.289226     0.953721  Biso 1.000000     N
    N   1.0     0.309820     0.854226     0.704924  Biso 1.000000     N
    N   1.0     0.225328     0.712540     0.540788  Biso 1.000000     N
    N   1.0     0.233661     0.167864     0.776113  Biso 1.000000     N
    N   1.0     0.789160     0.789223     0.546294  Biso 1.000000     N
    N   1.0     0.809787     0.354238     0.795105  Biso 1.000000     N
    N   1.0     0.274664     0.787411     0.040750  Biso 1.000000     N
    N   1.0     0.266281     0.332122     0.276094  Biso 1.000000     N
    N   1.0     0.710790     0.710759     0.046280  Biso 1.000000     N
    N   1.0     0.690127     0.145755     0.295079  Biso 1.000000     N
    O   1.0     0.791485     0.575228     0.570349  Biso 1.000000     O
    O   1.0     0.440606     0.296285     0.570487  Biso 1.000000     O
    O   1.0     0.223052     0.933506     0.561145  Biso 1.000000     O
    O   1.0     0.545738     0.217583     0.574741  Biso 1.000000     O
    O   1.0     0.923791     0.582261     0.496072  Biso 1.000000     O
    O   1.0     0.898129     0.121890     0.279996  Biso 1.000000     O
    O   1.0     0.923157     0.361738     0.311496  Biso 1.000000     O
    O   1.0     0.007782     0.717568     0.286344  Biso 1.000000     O
    O   1.0     0.903473     0.754455     0.365287  Biso 1.000000     O
    O   1.0     0.073765     0.362333     0.277374  Biso 1.000000     O
    O   1.0     0.086231     0.915926     0.487124  Biso 1.000000     O
    O   1.0     0.043082     0.115477     0.319982  Biso 1.000000     O
    O   1.0     0.988973     0.247369     0.446386  Biso 1.000000     O
    O   1.0     0.708470     0.924745     0.070343  Biso 1.000000     O
    O   1.0     0.059315     0.203715     0.070479  Biso 1.000000     O
    O   1.0     0.276924     0.566455     0.061142  Biso 1.000000     O
    O   1.0     0.954165     0.282433     0.074759  Biso 1.000000     O
    O   1.0     0.576175     0.917703    -0.003938  Biso 1.000000     O
    O   1.0     0.601806     0.378103     0.780000  Biso 1.000000     O
    O   1.0     0.576666     0.138177     0.811729  Biso 1.000000     O
    O   1.0     0.492190     0.782391     0.786363  Biso 1.000000     O
    O   1.0     0.596464     0.745501     0.865311  Biso 1.000000     O
    O   1.0     0.426207     0.137670     0.777366  Biso 1.000000     O
    O   1.0     0.413745     0.584026     0.987120  Biso 1.000000     O
    O   1.0     0.456878     0.384517     0.819981  Biso 1.000000     O
    O   1.0     0.510914     0.252655     0.946402  Biso 1.000000     O
    O   1.0     0.208460     0.424754     0.429652  Biso 1.000000     O
    O   1.0     0.559339     0.703697     0.429522  Biso 1.000000     O
    O   1.0     0.776900     0.066472     0.438845  Biso 1.000000     O
    O   1.0     0.454209     0.782399     0.425263  Biso 1.000000     O
    O   1.0     0.076155     0.417721     0.503931  Biso 1.000000     O
    O   1.0     0.101825     0.878090     0.720007  Biso 1.000000     O
    O   1.0     0.076776     0.638232     0.688480  Biso 1.000000     O
    O   1.0     0.992166     0.282413     0.713664  Biso 1.000000     O
    O   1.0     0.096471     0.245522     0.634720  Biso 1.000000     O
    O   1.0     0.926182     0.637648     0.722629  Biso 1.000000     O
    O   1.0     0.913713     0.084061     0.512882  Biso 1.000000     O
    O   1.0     0.956870     0.884500     0.680022  Biso 1.000000     O
    O   1.0     0.010972     0.752618     0.553616  Biso 1.000000     O
    O   1.0     0.291474     0.075237     0.929662  Biso 1.000000     O
    O   1.0     0.940629     0.796268     0.929517  Biso 1.000000     O
    O   1.0     0.723028     0.433524     0.938875  Biso 1.000000     O
    O   1.0     0.045782     0.717551     0.925248  Biso 1.000000     O
    O   1.0     0.423771     0.082281     0.000000  Biso 1.000000     O
    O   1.0     0.398148     0.621877     0.220003  Biso 1.000000     O
    O   1.0     0.423262     0.861788     0.188316  Biso 1.000000     O
    O   1.0     0.507759     0.217589     0.213636  Biso 1.000000     O
    O   1.0     0.403480     0.254474     0.134688  Biso 1.000000     O
    O   1.0     0.573741     0.862312     0.222637  Biso 1.000000     O
    O   1.0     0.586198     0.415964     0.012880  Biso 1.000000     O
    O   1.0     0.543073     0.615459     0.180020  Biso 1.000000     O
    O   1.0     0.489030     0.747333     0.053603  Biso 1.000000     O
   Cd   1.0     0.844217     0.211890     0.368720  Biso 1.000000    Cd
   Cd   1.0     0.127061     0.273156     0.365426  Biso 1.000000    Cd
   Cd   1.0     0.655692     0.288111     0.868763  Biso 1.000000    Cd
   Cd   1.0     0.372880     0.226832     0.865424  Biso 1.000000    Cd
   Cd   1.0     0.155731     0.788092     0.631277  Biso 1.000000    Cd
   Cd   1.0     0.872885     0.726823     0.634576  Biso 1.000000    Cd
   Cd   1.0     0.344255     0.711872     0.131247  Biso 1.000000    Cd
   Cd   1.0     0.627066     0.773148     0.134579  Biso 1.000000    Cd
