#======================================================================

# CRYSTAL DATA

#----------------------------------------------------------------------

data_VESTA_phase_1


_pd_phase_name                         MOF
_cell_length_a                         15.58300
_cell_length_b                         17.77800
_cell_length_c                         18.30700
_cell_angle_alpha                      112.39900
_cell_angle_beta                       89.99900
_cell_angle_gamma                      89.94600
_symmetry_space_group_name_H-M         "P 1"
_symmetry_Int_Tables_number            1

loop_
_symmetry_equiv_pos_as_xyz
   "x, y, z"

loop_
   _atom_site_label
   _atom_site_occupancy
   _atom_site_fract_x
   _atom_site_fract_y
   _atom_site_fract_z
   _atom_site_adp_type
   _atom_site_B_iso_or_equiv
   _atom_site_type_symbol
    H   1.0     0.994489     0.106829     0.137057  Biso 1.000000     H
    H   1.0    -0.000888     0.896609     0.196710  Biso 1.000000     H
    H   1.0     0.503426     0.393744     0.027547  Biso 1.000000     H
    H   1.0     0.893419     0.226941     0.129984  Biso 1.000000     H
    H   1.0     0.702626     0.159796     0.947022  Biso 1.000000     H
    H   1.0     0.796111     0.335777     0.218178  Biso 1.000000     H
    H   1.0     0.605325     0.268775     0.035192  Biso 1.000000     H
    H   1.0     0.822287     0.839367     0.857208  Biso 1.000000     H
    H   1.0     0.751684     0.790171     0.061657  Biso 1.000000     H
    H   1.0     0.744480     0.714376     0.770884  Biso 1.000000     H
    H   1.0     0.674586     0.664609     0.975341  Biso 1.000000     H
    H   1.0     0.253027     0.713877     0.105638  Biso 1.000000     H
    H   1.0     0.374934     0.701898     0.311643  Biso 1.000000     H
    H   1.0     0.167764     0.833995     0.191544  Biso 1.000000     H
    H   1.0     0.286392     0.819387     0.397602  Biso 1.000000     H
    H   1.0     0.494950     0.393433     0.363023  Biso 1.000000     H
    H   1.0     0.498456     0.603451     0.303006  Biso 1.000000     H
    H   1.0     0.000000     0.106361     0.472446  Biso 1.000000     H
    H   1.0     0.392960     0.273108     0.368448  Biso 1.000000     H
    H   1.0     0.204891     0.338386     0.553842  Biso 1.000000     H
    H   1.0     0.295097     0.164761     0.280799  Biso 1.000000     H
    H   1.0     0.106970     0.229968     0.466130  Biso 1.000000     H
    H   1.0     0.321721     0.660105     0.642720  Biso 1.000000     H
    H   1.0     0.252055     0.710013     0.438404  Biso 1.000000     H
    H   1.0     0.244055     0.785320     0.729124  Biso 1.000000     H
    H   1.0     0.175136     0.835846     0.524839  Biso 1.000000     H
    H   1.0     0.753418     0.786220     0.394219  Biso 1.000000     H
    H   1.0     0.875521     0.797430     0.187999  Biso 1.000000     H
    H   1.0     0.668096     0.666236     0.308571  Biso 1.000000     H
    H   1.0     0.786858     0.680128     0.102248  Biso 1.000000     H
    H   1.0     0.005248     0.893010     0.863003  Biso 1.000000     H
    H   1.0     0.000000     0.103344     0.803500  Biso 1.000000     H
    H   1.0     0.499699     0.606233     0.972628  Biso 1.000000     H
    H   1.0     0.106784     0.772966     0.869891  Biso 1.000000     H
    H   1.0     0.297344     0.840055     0.053057  Biso 1.000000     H
    H   1.0     0.204100     0.664054     0.781837  Biso 1.000000     H
    H   1.0     0.394618     0.730932     0.965052  Biso 1.000000     H
    H   1.0     0.178050     0.161187     0.142975  Biso 1.000000     H
    H   1.0     0.248489     0.208908     0.937693  Biso 1.000000     H
    H   1.0     0.255964     0.286402     0.228673  Biso 1.000000     H
    H   1.0     0.325705     0.334695     0.023358  Biso 1.000000     H
    H   1.0     0.748040     0.285532     0.893489  Biso 1.000000     H
    H   1.0     0.625692     0.297604     0.687714  Biso 1.000000     H
    H   1.0     0.832894     0.165203     0.807475  Biso 1.000000     H
    H   1.0     0.713948     0.179947     0.601596  Biso 1.000000     H
    H   1.0     0.504587     0.606676     0.636841  Biso 1.000000     H
    H   1.0     0.502358     0.396526     0.696630  Biso 1.000000     H
    H   1.0     0.000410     0.893881     0.527379  Biso 1.000000     H
    H   1.0     0.607212     0.726881     0.631607  Biso 1.000000     H
    H   1.0     0.795169     0.661484     0.446107  Biso 1.000000     H
    H   1.0     0.705056     0.835331     0.719098  Biso 1.000000     H
    H   1.0     0.893050     0.770054     0.533653  Biso 1.000000     H
    H   1.0     0.678485     0.339466     0.356944  Biso 1.000000     H
    H   1.0     0.747863     0.290263     0.561714  Biso 1.000000     H
    H   1.0     0.756253     0.214161     0.270898  Biso 1.000000     H
    H   1.0     0.824895     0.164335     0.475639  Biso 1.000000     H
    H   1.0     0.247639     0.214237     0.606550  Biso 1.000000     H
    H   1.0     0.125593     0.203026     0.812800  Biso 1.000000     H
    H   1.0     0.333187     0.333984     0.692148  Biso 1.000000     H
    H   1.0     0.214634     0.320016     0.898535  Biso 1.000000     H
    C   1.0     0.862156     0.120999     0.980810  Biso 1.000000     C
    C   1.0     0.803959     0.186632     0.033165  Biso 1.000000     C
    C   1.0     0.830079     0.236265     0.109760  Biso 1.000000     C
    C   1.0     0.722595     0.198670     0.006416  Biso 1.000000     C
    C   1.0     0.776079     0.296882     0.158789  Biso 1.000000     C
    C   1.0     0.668647     0.259364     0.055409  Biso 1.000000     C
    C   1.0     0.694727     0.308935     0.132049  Biso 1.000000     C
    C   1.0     0.636458     0.374565     0.184395  Biso 1.000000     C
    C   1.0     0.841954     0.894652     0.016278  Biso 1.000000     C
    C   1.0     0.792661     0.821639     0.964716  Biso 1.000000     C
    C   1.0     0.790290     0.800690     0.882712  Biso 1.000000     C
    C   1.0     0.750057     0.772762     0.997927  Biso 1.000000     C
    C   1.0     0.746588     0.731347     0.834599  Biso 1.000000     C
    C   1.0     0.706571     0.703309     0.949844  Biso 1.000000     C
    C   1.0     0.704669     0.682058     0.867787  Biso 1.000000     C
    C   1.0     0.656998     0.607888     0.816217  Biso 1.000000     C
    C   1.0     0.371162     0.628569     0.151959  Biso 1.000000     C
    C   1.0     0.319364     0.700360     0.203223  Biso 1.000000     C
    C   1.0     0.260395     0.737575     0.169582  Biso 1.000000     C
    C   1.0     0.329201     0.730787     0.285610  Biso 1.000000     C
    C   1.0     0.212249     0.803999     0.217547  Biso 1.000000     C
    C   1.0     0.279705     0.796065     0.333634  Biso 1.000000     C
    C   1.0     0.220481     0.833034     0.300040  Biso 1.000000     C
    C   1.0     0.165023     0.901850     0.351340  Biso 1.000000     C
    C   1.0     0.363385     0.377913     0.518494  Biso 1.000000     C
    C   1.0     0.304914     0.312440     0.466482  Biso 1.000000     C
    C   1.0     0.330098     0.263497     0.389342  Biso 1.000000     C
    C   1.0     0.224131     0.300036     0.494005  Biso 1.000000     C
    C   1.0     0.275796     0.203141     0.340605  Biso 1.000000     C
    C   1.0     0.169844     0.239626     0.445271  Biso 1.000000     C
    C   1.0     0.194983     0.190769     0.368084  Biso 1.000000     C
    C   1.0     0.136448     0.125487     0.315819  Biso 1.000000     C
    C   1.0     0.341775     0.605015     0.483651  Biso 1.000000     C
    C   1.0     0.292562     0.678181     0.535284  Biso 1.000000     C
    C   1.0     0.289951     0.698979     0.617264  Biso 1.000000     C
    C   1.0     0.250253     0.727321     0.502142  Biso 1.000000     C
    C   1.0     0.246361     0.768474     0.665428  Biso 1.000000     C
    C   1.0     0.206888     0.796932     0.550271  Biso 1.000000     C
    C   1.0     0.204727     0.818015     0.632299  Biso 1.000000     C
    C   1.0     0.157056     0.892265     0.683894  Biso 1.000000     C
    C   1.0     0.871448     0.871167     0.347763  Biso 1.000000     C
    C   1.0     0.819846     0.799337     0.296524  Biso 1.000000     C
    C   1.0     0.760841     0.762336     0.330275  Biso 1.000000     C
    C   1.0     0.829751     0.768728     0.214134  Biso 1.000000     C
    C   1.0     0.712630     0.696015     0.282442  Biso 1.000000     C
    C   1.0     0.780175     0.703562     0.166226  Biso 1.000000     C
    C   1.0     0.720888     0.666832     0.199943  Biso 1.000000     C
    C   1.0     0.665244     0.598250     0.148750  Biso 1.000000     C
    C   1.0     0.137901     0.878924     0.019069  Biso 1.000000     C
    C   1.0     0.196124     0.813254     0.966805  Biso 1.000000     C
    C   1.0     0.170070     0.763607     0.890194  Biso 1.000000     C
    C   1.0     0.277424     0.801174     0.993649  Biso 1.000000     C
    C   1.0     0.224078     0.702952     0.841241  Biso 1.000000     C
    C   1.0     0.331375     0.740421     0.944739  Biso 1.000000     C
    C   1.0     0.305363     0.690855     0.868075  Biso 1.000000     C
    C   1.0     0.363613     0.625176     0.815773  Biso 1.000000     C
    C   1.0     0.158096     0.105154     0.983805  Biso 1.000000     C
    C   1.0     0.207546     0.178198     0.035084  Biso 1.000000     C
    C   1.0     0.210010     0.199610     0.117150  Biso 1.000000     C
    C   1.0     0.250156     0.226711     0.001466  Biso 1.000000     C
    C   1.0     0.253791     0.269077     0.164912  Biso 1.000000     C
    C   1.0     0.293718     0.296278     0.049181  Biso 1.000000     C
    C   1.0     0.295636     0.318046     0.131303  Biso 1.000000     C
    C   1.0     0.343337     0.392404     0.182438  Biso 1.000000     C
    C   1.0     0.630552     0.371459     0.847492  Biso 1.000000     C
    C   1.0     0.681640     0.299216     0.796021  Biso 1.000000     C
    C   1.0     0.740511     0.261817     0.829561  Biso 1.000000     C
    C   1.0     0.671466     0.268663     0.713666  Biso 1.000000     C
    C   1.0     0.788415     0.195260     0.781535  Biso 1.000000     C
    C   1.0     0.720786     0.203260     0.665553  Biso 1.000000     C
    C   1.0     0.780145     0.166307     0.699047  Biso 1.000000     C
    C   1.0     0.836028     0.097843     0.647801  Biso 1.000000     C
    C   1.0     0.636700     0.621988     0.481564  Biso 1.000000     C
    C   1.0     0.695190     0.687485     0.533515  Biso 1.000000     C
    C   1.0     0.670033     0.736496     0.610644  Biso 1.000000     C
    C   1.0     0.775946     0.699884     0.505933  Biso 1.000000     C
    C   1.0     0.724337     0.796904     0.659302  Biso 1.000000     C
    C   1.0     0.830229     0.760359     0.554583  Biso 1.000000     C
    C   1.0     0.805115     0.809282     0.631758  Biso 1.000000     C
    C   1.0     0.863632     0.874623     0.683974  Biso 1.000000     C
    C   1.0     0.658189     0.394938     0.516062  Biso 1.000000     C
    C   1.0     0.707472     0.321744     0.464588  Biso 1.000000     C
    C   1.0     0.710211     0.300722     0.382579  Biso 1.000000     C
    C   1.0     0.749749     0.272785     0.497958  Biso 1.000000     C
    C   1.0     0.753860     0.231163     0.334614  Biso 1.000000     C
    C   1.0     0.793172     0.203119     0.450037  Biso 1.000000     C
    C   1.0     0.795436     0.181792     0.367981  Biso 1.000000     C
    C   1.0     0.843170     0.107444     0.316661  Biso 1.000000     C
    C   1.0     0.130127     0.128908     0.652834  Biso 1.000000     C
    C   1.0     0.181361     0.200982     0.704242  Biso 1.000000     C
    C   1.0     0.240311     0.238043     0.670500  Biso 1.000000     C
    C   1.0     0.171447     0.231635     0.786636  Biso 1.000000     C
    C   1.0     0.288666     0.304237     0.718314  Biso 1.000000     C
    C   1.0     0.221255     0.296655     0.834551  Biso 1.000000     C
    C   1.0     0.280689     0.333257     0.800834  Biso 1.000000     C
    C   1.0     0.336907     0.401441     0.851843  Biso 1.000000     C
    O   1.0     0.996796     0.048068     0.122292  Biso 1.000000     O
    O   1.0    -0.000507     0.955272     0.210511  Biso 1.000000     O
    O   1.0     0.503329     0.452694     0.043413  Biso 1.000000     O
    O   1.0     0.933423     0.108942     0.000000  Biso 1.000000     O
    O   1.0     0.834379     0.081441     0.910025  Biso 1.000000     O
    O   1.0     0.566621     0.388281     0.156523  Biso 1.000000     O
    O   1.0     0.662831     0.412198     0.256034  Biso 1.000000     O
    O   1.0     0.880743     0.937128     0.985056  Biso 1.000000     O
    O   1.0     0.840848     0.908620     0.090936  Biso 1.000000     O
    O   1.0     0.618855     0.565177     0.847641  Biso 1.000000     O
    O   1.0     0.659058     0.592975     0.741439  Biso 1.000000     O
    O   1.0     0.436924     0.608738     0.180998  Biso 1.000000     O
    O   1.0     0.344107     0.592418     0.080429  Biso 1.000000     O
    O   1.0     0.121298     0.940528     0.319275  Biso 1.000000     O
    O   1.0     0.166466     0.915943     0.426130  Biso 1.000000     O
    O   1.0     0.496922     0.452165     0.377518  Biso 1.000000     O
    O   1.0     0.499108     0.544773     0.289109  Biso 1.000000     O
    O   1.0     0.002698     0.047415     0.456602  Biso 1.000000     O
    O   1.0     0.433721     0.390640     0.490736  Biso 1.000000     O
    O   1.0     0.336713     0.416613     0.589843  Biso 1.000000     O
    O   1.0     0.066667     0.111844     0.343793  Biso 1.000000     O
    O   1.0     0.162629     0.088062     0.244065  Biso 1.000000     O
    O   1.0     0.380460     0.562455     0.514925  Biso 1.000000     O
    O   1.0     0.340767     0.591057     0.408998  Biso 1.000000     O
    O   1.0     0.118889     0.935042     0.652487  Biso 1.000000     O
    O   1.0     0.159076     0.907188     0.758660  Biso 1.000000     O
    O   1.0     0.936995     0.891272     0.318723  Biso 1.000000     O
    O   1.0     0.844376     0.907088     0.419346  Biso 1.000000     O
    O   1.0     0.621564     0.559589     0.180811  Biso 1.000000     O
    O   1.0     0.666501     0.584364     0.073995  Biso 1.000000     O
    O   1.0     0.003005     0.951770     0.877748  Biso 1.000000     O
    O   1.0     0.000000     0.044652     0.789512  Biso 1.000000     O
    O   1.0     0.500029     0.547261     0.956550  Biso 1.000000     O
    O   1.0     0.066673     0.890946    -0.007844  Biso 1.000000     O
    O   1.0     0.165613     0.918538     0.089861  Biso 1.000000     O
    O   1.0     0.433385     0.611395     0.843696  Biso 1.000000     O
    O   1.0     0.337273     0.587584     0.744109  Biso 1.000000     O
    O   1.0     0.119194     0.062949     0.015259  Biso 1.000000     O
    O   1.0     0.159182     0.090919     0.909097  Biso 1.000000     O
    O   1.0     0.381671     0.434570     0.150496  Biso 1.000000     O
    O   1.0     0.341064     0.407946     0.257321  Biso 1.000000     O
    O   1.0     0.564235     0.391238     0.819184  Biso 1.000000     O
    O   1.0     0.659002     0.407996     0.918525  Biso 1.000000     O
    O   1.0     0.880021     0.059467     0.680036  Biso 1.000000     O
    O   1.0     0.834939     0.083745     0.573036  Biso 1.000000     O
    O   1.0     0.502700     0.547938     0.622314  Biso 1.000000     O
    O   1.0     0.501473     0.455219     0.710650  Biso 1.000000     O
    O   1.0     0.000000     0.952859     0.543498  Biso 1.000000     O
    O   1.0     0.566313     0.609367     0.509324  Biso 1.000000     O
    O   1.0     0.663386     0.583149     0.410250  Biso 1.000000     O
    O   1.0     0.933354     0.888341     0.655970  Biso 1.000000     O
    O   1.0     0.837463     0.912013     0.755747  Biso 1.000000     O
    O   1.0     0.619366     0.437333     0.484673  Biso 1.000000     O
    O   1.0     0.659263     0.409109     0.590750  Biso 1.000000     O
    O   1.0     0.881555     0.065083     0.348420  Biso 1.000000     O
    O   1.0     0.840947     0.092065     0.241819  Biso 1.000000     O
    O   1.0     0.064013     0.108976     0.681224  Biso 1.000000     O
    O   1.0     0.158430     0.092611     0.581657  Biso 1.000000     O
    O   1.0     0.380213     0.440166     0.819558  Biso 1.000000     O
    O   1.0     0.336722     0.415001     0.926506  Biso 1.000000     O
   Zn   1.0     0.096259     0.002585     0.166274  Biso 1.000000    Zn
   Zn   1.0     0.900670     0.000000     0.166391  Biso 1.000000    Zn
   Zn   1.0     0.500681     0.497792     0.166138  Biso 1.000000    Zn
   Zn   1.0     0.403759     0.500913     0.002963  Biso 1.000000    Zn
   Zn   1.0     0.596120     0.497748     0.333589  Biso 1.000000    Zn
   Zn   1.0     0.400563     0.499565     0.333117  Biso 1.000000    Zn
   Zn   1.0     0.000602     0.002324     0.333702  Biso 1.000000    Zn
   Zn   1.0     0.903598     0.998671     0.496955  Biso 1.000000    Zn
   Zn   1.0     0.903789     0.997422     0.833643  Biso 1.000000    Zn
   Zn   1.0     0.099339    -0.000591     0.833682  Biso 1.000000    Zn
   Zn   1.0     0.499914     0.502183     0.833743  Biso 1.000000    Zn
   Zn   1.0     0.599749     0.498922     0.996929  Biso 1.000000    Zn
   Zn   1.0     0.403969     0.502045     0.666496  Biso 1.000000    Zn
   Zn   1.0     0.599510     0.500811     0.666364  Biso 1.000000    Zn
   Zn   1.0     0.999847     0.997726     0.666315  Biso 1.000000    Zn
   Zn   1.0     0.099620     0.001608     0.503184  Biso 1.000000    Zn
   Zn   1.0     0.000000    -0.000048     0.000011  Biso 1.000000    Zn
   Zn   1.0     0.499969     0.500020     0.499933  Biso 1.000000    Zn
