#======================================================================

# CRYSTAL DATA

#----------------------------------------------------------------------

data_VESTA_phase_1


_pd_phase_name                         MOF
_cell_length_a                         18.66500
_cell_length_b                         19.52400
_cell_length_c                         19.47600
_cell_angle_alpha                      122.21700
_cell_angle_beta                       89.95800
_cell_angle_gamma                      90.11800
_symmetry_space_group_name_H-M         "P 1"
_symmetry_Int_Tables_number            1

loop_
_symmetry_equiv_pos_as_xyz
   "x, y, z"

loop_
   _atom_site_label
   _atom_site_occupancy
   _atom_site_fract_x
   _atom_site_fract_y
   _atom_site_fract_z
   _atom_site_adp_type
   _atom_site_B_iso_or_equiv
   _atom_site_type_symbol
    H   1.0     0.126167     0.264293     0.209791  Biso 1.000000     H
    H   1.0     0.126164     0.264290     0.709790  Biso 1.000000     H
    H   1.0     0.126162     0.764283     0.209789  Biso 1.000000     H
    H   1.0     0.126159     0.764284     0.709789  Biso 1.000000     H
    H   1.0     0.626156     0.264293     0.209791  Biso 1.000000     H
    H   1.0     0.626153     0.264291     0.709790  Biso 1.000000     H
    H   1.0     0.626151     0.764284     0.209789  Biso 1.000000     H
    H   1.0     0.626148     0.764283     0.709788  Biso 1.000000     H
    H   1.0     0.219541     0.158910     0.395773  Biso 1.000000     H
    H   1.0     0.219538     0.158907     0.895772  Biso 1.000000     H
    H   1.0     0.219536     0.658900     0.395771  Biso 1.000000     H
    H   1.0     0.219532     0.658899     0.895770  Biso 1.000000     H
    H   1.0     0.719530     0.158909     0.395773  Biso 1.000000     H
    H   1.0     0.719527     0.158907     0.895772  Biso 1.000000     H
    H   1.0     0.719525     0.658900     0.395771  Biso 1.000000     H
    H   1.0     0.719522     0.658899     0.895770  Biso 1.000000     H
    H   1.0     0.125764     0.178502     0.406320  Biso 1.000000     H
    H   1.0     0.125760     0.178499     0.906319  Biso 1.000000     H
    H   1.0     0.125759     0.678492     0.406318  Biso 1.000000     H
    H   1.0     0.125755     0.678491     0.906317  Biso 1.000000     H
    H   1.0     0.625753     0.178501     0.406320  Biso 1.000000     H
    H   1.0     0.625749     0.178500     0.906319  Biso 1.000000     H
    H   1.0     0.625748     0.678492     0.406318  Biso 1.000000     H
    H   1.0     0.625744     0.678491     0.906317  Biso 1.000000     H
    H   1.0     0.302038     0.296223     0.473425  Biso 1.000000     H
    H   1.0     0.302034     0.296220     0.973423  Biso 1.000000     H
    H   1.0     0.302033     0.796213     0.473422  Biso 1.000000     H
    H   1.0     0.302030     0.796212     0.973422  Biso 1.000000     H
    H   1.0     0.802027     0.296223     0.473425  Biso 1.000000     H
    H   1.0     0.802024     0.296220     0.973423  Biso 1.000000     H
    H   1.0     0.802022     0.796213     0.473422  Biso 1.000000     H
    H   1.0     0.802019     0.796211     0.973421  Biso 1.000000     H
    H   1.0     0.287512     0.160526     0.276421  Biso 1.000000     H
    H   1.0     0.287509     0.160523     0.776420  Biso 1.000000     H
    H   1.0     0.287507     0.660516     0.276418  Biso 1.000000     H
    H   1.0     0.287504     0.660516     0.776418  Biso 1.000000     H
    H   1.0     0.787501     0.160525     0.276421  Biso 1.000000     H
    H   1.0     0.787498     0.160523     0.776420  Biso 1.000000     H
    H   1.0     0.787496     0.660516     0.276418  Biso 1.000000     H
    H   1.0     0.787493     0.660516     0.776418  Biso 1.000000     H
    H   1.0     0.297409     0.044588     0.133551  Biso 1.000000     H
    H   1.0     0.297406     0.044585     0.633549  Biso 1.000000     H
    H   1.0     0.297405     0.544579     0.133549  Biso 1.000000     H
    H   1.0     0.297400     0.544579     0.633551  Biso 1.000000     H
    H   1.0     0.797398     0.044587     0.133550  Biso 1.000000     H
    H   1.0     0.797394     0.044586     0.633549  Biso 1.000000     H
    H   1.0     0.797394     0.544579     0.133549  Biso 1.000000     H
    H   1.0     0.797390     0.544579     0.633550  Biso 1.000000     H
    H   1.0     0.383400     0.052028     0.098313  Biso 1.000000     H
    H   1.0     0.383396     0.052026     0.598310  Biso 1.000000     H
    H   1.0     0.383395     0.552018     0.098309  Biso 1.000000     H
    H   1.0     0.383391     0.552019     0.598313  Biso 1.000000     H
    H   1.0     0.883389     0.052027     0.098311  Biso 1.000000     H
    H   1.0     0.883385     0.052026     0.598311  Biso 1.000000     H
    H   1.0     0.883384     0.552019     0.098310  Biso 1.000000     H
    H   1.0     0.883381     0.552018     0.598312  Biso 1.000000     H
    H   1.0     0.144011     0.321844     0.003172  Biso 1.000000     H
    H   1.0     0.144008     0.321842     0.503172  Biso 1.000000     H
    H   1.0     0.144003     0.821833     0.503168  Biso 1.000000     H
    H   1.0     0.144000     0.821832     0.000000  Biso 1.000000     H
    H   1.0     0.644000     0.321844     0.003173  Biso 1.000000     H
    H   1.0     0.643997     0.321842     0.503172  Biso 1.000000     H
    H   1.0     0.643992     0.821833     0.503169  Biso 1.000000     H
    H   1.0     0.643989     0.821832     0.000000  Biso 1.000000     H
    H   1.0     0.342877     0.429442     0.456614  Biso 1.000000     H
    H   1.0     0.342872     0.429439     0.956608  Biso 1.000000     H
    H   1.0     0.342871     0.929433     0.456611  Biso 1.000000     H
    H   1.0     0.342869     0.929432     0.956611  Biso 1.000000     H
    H   1.0     0.842865     0.429442     0.456612  Biso 1.000000     H
    H   1.0     0.842861     0.429439     0.956609  Biso 1.000000     H
    H   1.0     0.842861     0.929433     0.456612  Biso 1.000000     H
    H   1.0     0.842857     0.929432     0.956610  Biso 1.000000     H
    H   1.0     0.366197     0.409213     0.031323  Biso 1.000000     H
    H   1.0     0.366193     0.409214     0.531328  Biso 1.000000     H
    H   1.0     0.366192     0.909206     0.031327  Biso 1.000000     H
    H   1.0     0.366189     0.909203     0.531323  Biso 1.000000     H
    H   1.0     0.866186     0.409214     0.031324  Biso 1.000000     H
    H   1.0     0.866182     0.409213     0.531326  Biso 1.000000     H
    H   1.0     0.866181     0.909205     0.031324  Biso 1.000000     H
    H   1.0     0.866178     0.909204     0.531325  Biso 1.000000     H
    H   1.0     0.332036     0.074767     0.004986  Biso 1.000000     H
    H   1.0     0.332032     0.074765     0.504984  Biso 1.000000     H
    H   1.0     0.332031     0.574757     0.004983  Biso 1.000000     H
    H   1.0     0.332029     0.574756     0.504985  Biso 1.000000     H
    H   1.0     0.832024     0.074767     0.004986  Biso 1.000000     H
    H   1.0     0.832022     0.074765     0.504985  Biso 1.000000     H
    H   1.0     0.832020     0.574757     0.004983  Biso 1.000000     H
    H   1.0     0.832018     0.574756     0.504984  Biso 1.000000     H
    H   1.0     0.248966     0.056052     0.023759  Biso 1.000000     H
    H   1.0     0.248962     0.056050     0.523758  Biso 1.000000     H
    H   1.0     0.248961     0.556043     0.023757  Biso 1.000000     H
    H   1.0     0.248958     0.556042     0.523757  Biso 1.000000     H
    H   1.0     0.748954     0.056052     0.023759  Biso 1.000000     H
    H   1.0     0.748952     0.056050     0.523758  Biso 1.000000     H
    H   1.0     0.748950     0.556043     0.023757  Biso 1.000000     H
    H   1.0     0.748947     0.556042     0.523757  Biso 1.000000     H
    H   1.0     0.375898     0.235891     0.290370  Biso 1.000000     H
    H   1.0     0.375895     0.235888     0.790368  Biso 1.000000     H
    H   1.0     0.375893     0.735881     0.290367  Biso 1.000000     H
    H   1.0     0.375890     0.735881     0.790367  Biso 1.000000     H
    H   1.0     0.875887     0.235890     0.290370  Biso 1.000000     H
    H   1.0     0.875884     0.235888     0.790369  Biso 1.000000     H
    H   1.0     0.875882     0.735881     0.290367  Biso 1.000000     H
    H   1.0     0.875879     0.735881     0.790367  Biso 1.000000     H
    H   1.0     0.470034     0.340921     0.104111  Biso 1.000000     H
    H   1.0     0.470031     0.340919     0.604110  Biso 1.000000     H
    H   1.0     0.470029     0.840912     0.104108  Biso 1.000000     H
    H   1.0     0.470027     0.840910     0.604107  Biso 1.000000     H
    H   1.0     0.970023     0.340922     0.104111  Biso 1.000000     H
    H   1.0     0.970020     0.340919     0.604109  Biso 1.000000     H
    H   1.0     0.970018     0.840912     0.104108  Biso 1.000000     H
    H   1.0     0.970015     0.840911     0.604107  Biso 1.000000     H
    H   1.0     0.376186     0.321392     0.093681  Biso 1.000000     H
    H   1.0     0.376183     0.321390     0.593680  Biso 1.000000     H
    H   1.0     0.376181     0.821382     0.093678  Biso 1.000000     H
    H   1.0     0.376179     0.821382     0.593677  Biso 1.000000     H
    H   1.0     0.876175     0.321392     0.093681  Biso 1.000000     H
    H   1.0     0.876172     0.321390     0.593679  Biso 1.000000     H
    H   1.0     0.876170     0.821382     0.093678  Biso 1.000000     H
    H   1.0     0.876168     0.821382     0.593677  Biso 1.000000     H
    H   1.0     0.052007     0.203938     0.026824  Biso 1.000000     H
    H   1.0     0.052004     0.203934     0.526821  Biso 1.000000     H
    H   1.0     0.052003     0.703928     0.026821  Biso 1.000000     H
    H   1.0     0.052000     0.703926     0.526820  Biso 1.000000     H
    H   1.0     0.551996     0.203937     0.026823  Biso 1.000000     H
    H   1.0     0.551993     0.203935     0.526822  Biso 1.000000     H
    H   1.0     0.551992     0.703928     0.026821  Biso 1.000000     H
    H   1.0     0.551989     0.703926     0.526820  Biso 1.000000     H
    H   1.0     0.038014     0.339089     0.223332  Biso 1.000000     H
    H   1.0     0.038011     0.339086     0.723331  Biso 1.000000     H
    H   1.0     0.038010     0.839078     0.223329  Biso 1.000000     H
    H   1.0     0.038006     0.839079     0.723330  Biso 1.000000     H
    H   1.0     0.538003     0.339088     0.223332  Biso 1.000000     H
    H   1.0     0.538000     0.339087     0.723331  Biso 1.000000     H
    H   1.0     0.537999     0.839079     0.223329  Biso 1.000000     H
    H   1.0     0.537996     0.839079     0.723329  Biso 1.000000     H
    H   1.0     0.047210     0.455479     0.366538  Biso 1.000000     H
    H   1.0     0.047207     0.455476     0.866536  Biso 1.000000     H
    H   1.0     0.047205     0.955470     0.366536  Biso 1.000000     H
    H   1.0     0.047205     0.955471     0.866538  Biso 1.000000     H
    H   1.0     0.547199     0.455479     0.366538  Biso 1.000000     H
    H   1.0     0.547197     0.455477     0.866537  Biso 1.000000     H
    H   1.0     0.547195     0.955470     0.366537  Biso 1.000000     H
    H   1.0     0.547193     0.955470     0.866538  Biso 1.000000     H
    H   1.0     0.133304     0.448534     0.401726  Biso 1.000000     H
    H   1.0     0.133301     0.448532     0.901725  Biso 1.000000     H
    H   1.0     0.133300     0.948525     0.401724  Biso 1.000000     H
    H   1.0     0.133298     0.948526     0.901729  Biso 1.000000     H
    H   1.0     0.633293     0.448534     0.401727  Biso 1.000000     H
    H   1.0     0.633291     0.448532     0.901726  Biso 1.000000     H
    H   1.0     0.633289     0.948525     0.401725  Biso 1.000000     H
    H   1.0     0.633286     0.948525     0.901727  Biso 1.000000     H
    H   1.0     0.393937     0.177956     0.496884  Biso 1.000000     H
    H   1.0     0.393940     0.177958    -0.003115  Biso 1.000000     H
    H   1.0     0.393935     0.677948    -0.003118  Biso 1.000000     H
    H   1.0     0.393933     0.677947     0.496882  Biso 1.000000     H
    H   1.0     0.893929     0.177958    -0.003115  Biso 1.000000     H
    H   1.0     0.893926     0.177956     0.496884  Biso 1.000000     H
    H   1.0     0.893925     0.677948    -0.003118  Biso 1.000000     H
    H   1.0     0.893922     0.677947     0.496882  Biso 1.000000     H
    H   1.0     0.092570     0.070904     0.043533  Biso 1.000000     H
    H   1.0     0.092569     0.070901     0.543527  Biso 1.000000     H
    H   1.0     0.092567     0.570895     0.043529  Biso 1.000000     H
    H   1.0     0.092564     0.570894     0.543529  Biso 1.000000     H
    H   1.0     0.592560     0.070904     0.043532  Biso 1.000000     H
    H   1.0     0.592558     0.070901     0.543528  Biso 1.000000     H
    H   1.0     0.592555     0.570895     0.043530  Biso 1.000000     H
    H   1.0     0.592553     0.570893     0.543529  Biso 1.000000     H
    H   1.0     0.116130     0.091189     0.468878  Biso 1.000000     H
    H   1.0     0.116128     0.091191     0.968884  Biso 1.000000     H
    H   1.0     0.116126     0.591182     0.468879  Biso 1.000000     H
    H   1.0     0.116123     0.591179     0.968877  Biso 1.000000     H
    H   1.0     0.616120     0.091190     0.468879  Biso 1.000000     H
    H   1.0     0.616117     0.091190     0.968881  Biso 1.000000     H
    H   1.0     0.616115     0.591181     0.468880  Biso 1.000000     H
    H   1.0     0.616112     0.591180     0.968879  Biso 1.000000     H
    H   1.0     0.082324     0.425243     0.494891  Biso 1.000000     H
    H   1.0     0.082321     0.425241     0.994890  Biso 1.000000     H
    H   1.0     0.082320     0.925233     0.494889  Biso 1.000000     H
    H   1.0     0.082314     0.925232     0.994891  Biso 1.000000     H
    H   1.0     0.582313     0.425242     0.494891  Biso 1.000000     H
    H   1.0     0.582310     0.425241     0.994890  Biso 1.000000     H
    H   1.0     0.582308     0.925233     0.494890  Biso 1.000000     H
    H   1.0     0.582304     0.925232     0.994890  Biso 1.000000     H
    H   1.0     0.499108     0.443621     0.476392  Biso 1.000000     H
    H   1.0     0.499105     0.443619     0.976390  Biso 1.000000     H
    H   1.0     0.499104     0.943612     0.476389  Biso 1.000000     H
    H   1.0     0.499100     0.943611     0.976389  Biso 1.000000     H
    H   1.0     0.999098     0.443621     0.476392  Biso 1.000000     H
    H   1.0     0.999095     0.443619     0.976390  Biso 1.000000     H
    H   1.0     0.999093     0.943611     0.476389  Biso 1.000000     H
    H   1.0     0.999088     0.943611     0.976389  Biso 1.000000     H
    C   1.0     0.154902     0.244576     0.244545  Biso 1.000000     C
    C   1.0     0.154899     0.244573     0.744543  Biso 1.000000     C
    C   1.0     0.154898     0.744566     0.244542  Biso 1.000000     C
    C   1.0     0.154895     0.744566     0.744543  Biso 1.000000     C
    C   1.0     0.654891     0.244575     0.244545  Biso 1.000000     C
    C   1.0     0.654888     0.244573     0.744544  Biso 1.000000     C
    C   1.0     0.654887     0.744566     0.244542  Biso 1.000000     C
    C   1.0     0.654884     0.744566     0.744542  Biso 1.000000     C
    C   1.0     0.178228     0.202908     0.404103  Biso 1.000000     C
    C   1.0     0.178225     0.202905     0.904102  Biso 1.000000     C
    C   1.0     0.178223     0.702898     0.404101  Biso 1.000000     C
    C   1.0     0.178220     0.702897     0.904100  Biso 1.000000     C
    C   1.0     0.678217     0.202907     0.404103  Biso 1.000000     C
    C   1.0     0.678214     0.202905     0.904102  Biso 1.000000     C
    C   1.0     0.678213     0.702898     0.404101  Biso 1.000000     C
    C   1.0     0.678209     0.702897     0.904100  Biso 1.000000     C
    C   1.0     0.237627     0.189908     0.278544  Biso 1.000000     C
    C   1.0     0.237624     0.189906     0.778543  Biso 1.000000     C
    C   1.0     0.237623     0.689898     0.278541  Biso 1.000000     C
    C   1.0     0.237619     0.689899     0.778542  Biso 1.000000     C
    C   1.0     0.737616     0.189908     0.278544  Biso 1.000000     C
    C   1.0     0.737613     0.189906     0.778543  Biso 1.000000     C
    C   1.0     0.737612     0.689899     0.278542  Biso 1.000000     C
    C   1.0     0.737609     0.689898     0.778541  Biso 1.000000     C
    C   1.0     0.182410     0.212696     0.333364  Biso 1.000000     C
    C   1.0     0.182407     0.212693     0.833363  Biso 1.000000     C
    C   1.0     0.182405     0.712686     0.333361  Biso 1.000000     C
    C   1.0     0.182402     0.712686     0.833361  Biso 1.000000     C
    C   1.0     0.682399     0.212696     0.333364  Biso 1.000000     C
    C   1.0     0.682396     0.212694     0.833363  Biso 1.000000     C
    C   1.0     0.682394     0.712686     0.333362  Biso 1.000000     C
    C   1.0     0.682391     0.712685     0.833361  Biso 1.000000     C
    C   1.0     0.328051     0.031517     0.079713  Biso 1.000000     C
    C   1.0     0.328048     0.031514     0.579710  Biso 1.000000     C
    C   1.0     0.328047     0.531507     0.079710  Biso 1.000000     C
    C   1.0     0.328043     0.531507     0.579712  Biso 1.000000     C
    C   1.0     0.828040     0.031516     0.079712  Biso 1.000000     C
    C   1.0     0.828037     0.031515     0.579711  Biso 1.000000     C
    C   1.0     0.828036     0.531507     0.079710  Biso 1.000000     C
    C   1.0     0.828032     0.531507     0.579711  Biso 1.000000     C
    C   1.0     0.195944     0.258027     0.051603  Biso 1.000000     C
    C   1.0     0.195941     0.258025     0.551602  Biso 1.000000     C
    C   1.0     0.195938     0.758018     0.051601  Biso 1.000000     C
    C   1.0     0.195935     0.758016     0.551600  Biso 1.000000     C
    C   1.0     0.695933     0.258027     0.051603  Biso 1.000000     C
    C   1.0     0.695930     0.258025     0.551602  Biso 1.000000     C
    C   1.0     0.695927     0.758018     0.051601  Biso 1.000000     C
    C   1.0     0.695925     0.758016     0.551600  Biso 1.000000     C
    C   1.0     0.190484     0.282071     0.488084  Biso 1.000000     C
    C   1.0     0.190481     0.282069     0.988082  Biso 1.000000     C
    C   1.0     0.190479     0.782061     0.488081  Biso 1.000000     C
    C   1.0     0.190476     0.782061     0.988081  Biso 1.000000     C
    C   1.0     0.690473     0.282071     0.488084  Biso 1.000000     C
    C   1.0     0.690470     0.282069     0.988083  Biso 1.000000     C
    C   1.0     0.690468     0.782062     0.488081  Biso 1.000000     C
    C   1.0     0.690465     0.782060     0.988081  Biso 1.000000     C
    C   1.0     0.326540     0.440624     0.016155  Biso 1.000000     C
    C   1.0     0.326537     0.440624     0.516158  Biso 1.000000     C
    C   1.0     0.326536     0.940616     0.016158  Biso 1.000000     C
    C   1.0     0.326532     0.940614     0.516155  Biso 1.000000     C
    C   1.0     0.826529     0.440624     0.016155  Biso 1.000000     C
    C   1.0     0.826526     0.440623     0.516157  Biso 1.000000     C
    C   1.0     0.826524     0.940616     0.016156  Biso 1.000000     C
    C   1.0     0.826521     0.940614     0.516156  Biso 1.000000     C
    C   1.0     0.252549     0.403765     0.008810  Biso 1.000000     C
    C   1.0     0.252546     0.403765     0.508812  Biso 1.000000     C
    C   1.0     0.252544     0.903758     0.008812  Biso 1.000000     C
    C   1.0     0.252541     0.903755     0.508809  Biso 1.000000     C
    C   1.0     0.752538     0.403765     0.008811  Biso 1.000000     C
    C   1.0     0.752535     0.403764     0.508811  Biso 1.000000     C
    C   1.0     0.752533     0.903757     0.008811  Biso 1.000000     C
    C   1.0     0.752530     0.903755     0.508809  Biso 1.000000     C
    C   1.0     0.404817     0.255488     0.255540  Biso 1.000000     C
    C   1.0     0.404814     0.255485     0.755538  Biso 1.000000     C
    C   1.0     0.404812     0.755478     0.255537  Biso 1.000000     C
    C   1.0     0.404809     0.755478     0.755537  Biso 1.000000     C
    C   1.0     0.904806     0.255487     0.255539  Biso 1.000000     C
    C   1.0     0.904803     0.255485     0.755538  Biso 1.000000     C
    C   1.0     0.904801     0.755478     0.255537  Biso 1.000000     C
    C   1.0     0.904798     0.755478     0.755537  Biso 1.000000     C
    C   1.0     0.428537     0.296962     0.095870  Biso 1.000000     C
    C   1.0     0.428534     0.296960     0.595869  Biso 1.000000     C
    C   1.0     0.428532     0.796953     0.095867  Biso 1.000000     C
    C   1.0     0.428529     0.796952     0.595866  Biso 1.000000     C
    C   1.0     0.928526     0.296963     0.095870  Biso 1.000000     C
    C   1.0     0.928523     0.296960     0.595868  Biso 1.000000     C
    C   1.0     0.928521     0.796953     0.095867  Biso 1.000000     C
    C   1.0     0.928518     0.796952     0.595866  Biso 1.000000     C
    C   1.0     0.487929     0.309878     0.221338  Biso 1.000000     C
    C   1.0     0.487926     0.309875     0.721337  Biso 1.000000     C
    C   1.0     0.487924     0.809868     0.221336  Biso 1.000000     C
    C   1.0     0.487921     0.809868     0.721335  Biso 1.000000     C
    C   1.0     0.987918     0.309878     0.221338  Biso 1.000000     C
    C   1.0     0.987915     0.309875     0.721337  Biso 1.000000     C
    C   1.0     0.987913     0.809868     0.221335  Biso 1.000000     C
    C   1.0     0.987910     0.809868     0.721336  Biso 1.000000     C
    C   1.0     0.432628     0.287224     0.166627  Biso 1.000000     C
    C   1.0     0.432625     0.287222     0.666625  Biso 1.000000     C
    C   1.0     0.432623     0.787214     0.166624  Biso 1.000000     C
    C   1.0     0.432620     0.787214     0.666624  Biso 1.000000     C
    C   1.0     0.932617     0.287224     0.166627  Biso 1.000000     C
    C   1.0     0.932614     0.287222     0.666625  Biso 1.000000     C
    C   1.0     0.932612     0.787214     0.166624  Biso 1.000000     C
    C   1.0     0.932609     0.787214     0.666624  Biso 1.000000     C
    C   1.0     0.077949     0.468714     0.420355  Biso 1.000000     C
    C   1.0     0.077947     0.468711     0.920354  Biso 1.000000     C
    C   1.0     0.077945     0.968704     0.420353  Biso 1.000000     C
    C   1.0     0.077943     0.968705     0.920356  Biso 1.000000     C
    C   1.0     0.577938     0.468714     0.420356  Biso 1.000000     C
    C   1.0     0.577936     0.468712     0.920354  Biso 1.000000     C
    C   1.0     0.577934     0.968704     0.420354  Biso 1.000000     C
    C   1.0     0.577931     0.968704     0.920355  Biso 1.000000     C
    C   1.0     0.445981     0.241887     0.448429  Biso 1.000000     C
    C   1.0     0.445978     0.241885     0.948428  Biso 1.000000     C
    C   1.0     0.445977     0.741878     0.448426  Biso 1.000000     C
    C   1.0     0.445974     0.741876     0.948425  Biso 1.000000     C
    C   1.0     0.945970     0.241887     0.448429  Biso 1.000000     C
    C   1.0     0.945967     0.241885     0.948428  Biso 1.000000     C
    C   1.0     0.945966     0.741878     0.448426  Biso 1.000000     C
    C   1.0     0.945963     0.741876     0.948425  Biso 1.000000     C
    C   1.0     0.440524     0.217770     0.011901  Biso 1.000000     C
    C   1.0     0.440521     0.217768     0.511900  Biso 1.000000     C
    C   1.0     0.440520     0.717760     0.011899  Biso 1.000000     C
    C   1.0     0.440517     0.717759     0.511898  Biso 1.000000     C
    C   1.0     0.940514     0.217770     0.011902  Biso 1.000000     C
    C   1.0     0.940510     0.217768     0.511900  Biso 1.000000     C
    C   1.0     0.940509     0.717760     0.011898  Biso 1.000000     C
    C   1.0     0.940506     0.717759     0.511898  Biso 1.000000     C
    C   1.0     0.076386     0.059601     0.483904  Biso 1.000000     C
    C   1.0     0.076383     0.059602     0.983908  Biso 1.000000     C
    C   1.0     0.076382     0.559594     0.483905  Biso 1.000000     C
    C   1.0     0.076379     0.559591     0.983903  Biso 1.000000     C
    C   1.0     0.576375     0.059602     0.483905  Biso 1.000000     C
    C   1.0     0.576372     0.059601     0.983906  Biso 1.000000     C
    C   1.0     0.576371     0.559594     0.483906  Biso 1.000000     C
    C   1.0     0.576368     0.559592     0.983904  Biso 1.000000     C
    C   1.0     0.002429     0.096135     0.490996  Biso 1.000000     C
    C   1.0     0.002426     0.096136     0.990998  Biso 1.000000     C
    C   1.0     0.002424     0.596128     0.490996  Biso 1.000000     C
    C   1.0     0.002421     0.596125     0.990994  Biso 1.000000     C
    C   1.0     0.502418     0.096136     0.490996  Biso 1.000000     C
    C   1.0     0.502415     0.096135     0.990997  Biso 1.000000     C
    C   1.0     0.502413     0.596128     0.490996  Biso 1.000000     C
    C   1.0     0.502410     0.596125     0.990994  Biso 1.000000     C
    N   1.0     0.297746     0.081132     0.049630  Biso 1.000000     N
    N   1.0     0.297743     0.081130     0.549628  Biso 1.000000     N
    N   1.0     0.297741     0.581123     0.049627  Biso 1.000000     N
    N   1.0     0.297738     0.581122     0.549628  Biso 1.000000     N
    N   1.0     0.797735     0.081132     0.049630  Biso 1.000000     N
    N   1.0     0.797732     0.081130     0.549629  Biso 1.000000     N
    N   1.0     0.797730     0.581123     0.049628  Biso 1.000000     N
    N   1.0     0.797727     0.581122     0.549628  Biso 1.000000     N
    N   1.0     0.253396     0.326153     0.488975  Biso 1.000000     N
    N   1.0     0.253393     0.326150     0.988972  Biso 1.000000     N
    N   1.0     0.253392     0.826143     0.488971  Biso 1.000000     N
    N   1.0     0.253389     0.826142     0.988972  Biso 1.000000     N
    N   1.0     0.753385     0.326153     0.488974  Biso 1.000000     N
    N   1.0     0.753382     0.326151     0.988973  Biso 1.000000     N
    N   1.0     0.753381     0.826143     0.488972  Biso 1.000000     N
    N   1.0     0.753378     0.826142     0.988971  Biso 1.000000     N
    N   1.0     0.220233     0.210194     0.222448  Biso 1.000000     N
    N   1.0     0.220230     0.210191     0.722446  Biso 1.000000     N
    N   1.0     0.220229     0.710184     0.222445  Biso 1.000000     N
    N   1.0     0.220226     0.710184     0.722445  Biso 1.000000     N
    N   1.0     0.720222     0.210193     0.222447  Biso 1.000000     N
    N   1.0     0.720219     0.210191     0.722446  Biso 1.000000     N
    N   1.0     0.720218     0.710184     0.222445  Biso 1.000000     N
    N   1.0     0.720215     0.710184     0.722445  Biso 1.000000     N
    N   1.0     0.129716     0.247780     0.311338  Biso 1.000000     N
    N   1.0     0.129713     0.247777     0.811337  Biso 1.000000     N
    N   1.0     0.129711     0.747770     0.311335  Biso 1.000000     N
    N   1.0     0.129708     0.747770     0.811335  Biso 1.000000     N
    N   1.0     0.629705     0.247779     0.311338  Biso 1.000000     N
    N   1.0     0.629702     0.247777     0.811337  Biso 1.000000     N
    N   1.0     0.629700     0.747770     0.311336  Biso 1.000000     N
    N   1.0     0.629697     0.747769     0.811335  Biso 1.000000     N
    N   1.0     0.047868     0.418857     0.450395  Biso 1.000000     N
    N   1.0     0.047865     0.418855     0.950394  Biso 1.000000     N
    N   1.0     0.047864     0.918847     0.450393  Biso 1.000000     N
    N   1.0     0.047860     0.918847     0.950394  Biso 1.000000     N
    N   1.0     0.547857     0.418857     0.450395  Biso 1.000000     N
    N   1.0     0.547854     0.418855     0.950394  Biso 1.000000     N
    N   1.0     0.547853     0.918847     0.450393  Biso 1.000000     N
    N   1.0     0.547849     0.918846     0.950394  Biso 1.000000     N
    N   1.0     0.003353     0.173812     0.011006  Biso 1.000000     N
    N   1.0     0.003350     0.173809     0.511003  Biso 1.000000     N
    N   1.0     0.003348     0.673802     0.011002  Biso 1.000000     N
    N   1.0     0.003345     0.673801     0.511002  Biso 1.000000     N
    N   1.0     0.503342     0.173811     0.011005  Biso 1.000000     N
    N   1.0     0.503339     0.173809     0.511004  Biso 1.000000     N
    N   1.0     0.503337     0.673802     0.011002  Biso 1.000000     N
    N   1.0     0.503334     0.673800     0.511002  Biso 1.000000     N
    N   1.0     0.470345     0.289680     0.277495  Biso 1.000000     N
    N   1.0     0.470342     0.289678     0.777494  Biso 1.000000     N
    N   1.0     0.470340     0.789671     0.277493  Biso 1.000000     N
    N   1.0     0.470337     0.789670     0.777492  Biso 1.000000     N
    N   1.0     0.970334     0.289680     0.277495  Biso 1.000000     N
    N   1.0     0.970331     0.289678     0.777494  Biso 1.000000     N
    N   1.0     0.970329     0.789670     0.277492  Biso 1.000000     N
    N   1.0     0.970326     0.789671     0.777493  Biso 1.000000     N
    N   1.0     0.379689     0.252312     0.188769  Biso 1.000000     N
    N   1.0     0.379686     0.252310     0.688767  Biso 1.000000     N
    N   1.0     0.379684     0.752302     0.188766  Biso 1.000000     N
    N   1.0     0.379681     0.752302     0.688766  Biso 1.000000     N
    N   1.0     0.879678     0.252312     0.188769  Biso 1.000000     N
    N   1.0     0.879675     0.252310     0.688767  Biso 1.000000     N
    N   1.0     0.879674     0.752302     0.188766  Biso 1.000000     N
    N   1.0     0.879671     0.752302     0.688766  Biso 1.000000     N
    O   1.0     0.260365     0.249548     0.070135  Biso 1.000000     O
    O   1.0     0.260362     0.249547     0.570135  Biso 1.000000     O
    O   1.0     0.260359     0.749539     0.070133  Biso 1.000000     O
    O   1.0     0.260357     0.749538     0.570132  Biso 1.000000     O
    O   1.0     0.760354     0.249548     0.070135  Biso 1.000000     O
    O   1.0     0.760351     0.249547     0.570135  Biso 1.000000     O
    O   1.0     0.760348     0.749539     0.070133  Biso 1.000000     O
    O   1.0     0.760346     0.749538     0.570132  Biso 1.000000     O
    O   1.0     0.139728     0.244612     0.077520  Biso 1.000000     O
    O   1.0     0.139725     0.244608     0.577518  Biso 1.000000     O
    O   1.0     0.139722     0.744603     0.077518  Biso 1.000000     O
    O   1.0     0.139720     0.744601     0.577517  Biso 1.000000     O
    O   1.0     0.639718     0.244611     0.077520  Biso 1.000000     O
    O   1.0     0.639715     0.244608     0.577518  Biso 1.000000     O
    O   1.0     0.639712     0.744603     0.077518  Biso 1.000000     O
    O   1.0     0.639709     0.744601     0.577516  Biso 1.000000     O
    O   1.0     0.196875     0.444945     0.022650  Biso 1.000000     O
    O   1.0     0.196872     0.444945     0.522651  Biso 1.000000     O
    O   1.0     0.196871     0.944938     0.022651  Biso 1.000000     O
    O   1.0     0.196868     0.944935     0.522649  Biso 1.000000     O
    O   1.0     0.696864     0.444946     0.022650  Biso 1.000000     O
    O   1.0     0.696861     0.444944     0.522650  Biso 1.000000     O
    O   1.0     0.696860     0.944938     0.022651  Biso 1.000000     O
    O   1.0     0.696857     0.944935     0.522649  Biso 1.000000     O
    O   1.0     0.010430     0.250097     0.429567  Biso 1.000000     O
    O   1.0     0.010427     0.250095     0.929566  Biso 1.000000     O
    O   1.0     0.010426     0.750087     0.429564  Biso 1.000000     O
    O   1.0     0.010422     0.750087     0.929564  Biso 1.000000     O
    O   1.0     0.510419     0.250096     0.429566  Biso 1.000000     O
    O   1.0     0.510416     0.250095     0.929566  Biso 1.000000     O
    O   1.0     0.510415     0.750087     0.429564  Biso 1.000000     O
    O   1.0     0.510411     0.750086     0.929563  Biso 1.000000     O
    O   1.0     0.389808     0.255680     0.422914  Biso 1.000000     O
    O   1.0     0.389805     0.255676     0.922912  Biso 1.000000     O
    O   1.0     0.389804     0.755670     0.422911  Biso 1.000000     O
    O   1.0     0.389801     0.755668     0.922910  Biso 1.000000     O
    O   1.0     0.889797     0.255679     0.422914  Biso 1.000000     O
    O   1.0     0.889794     0.255677     0.922912  Biso 1.000000     O
    O   1.0     0.889793     0.755670     0.422911  Biso 1.000000     O
    O   1.0     0.889790     0.755668     0.922910  Biso 1.000000     O
    O   1.0     0.446738     0.054677     0.476860  Biso 1.000000     O
    O   1.0     0.446735     0.054677     0.976861  Biso 1.000000     O
    O   1.0     0.446733     0.554669     0.476862  Biso 1.000000     O
    O   1.0     0.446730     0.554667     0.976858  Biso 1.000000     O
    O   1.0     0.946727     0.054677     0.476860  Biso 1.000000     O
    O   1.0     0.946724     0.054677     0.976862  Biso 1.000000     O
    O   1.0     0.946722     0.554669     0.476861  Biso 1.000000     O
    O   1.0     0.946719     0.554667     0.976858  Biso 1.000000     O
   Zn   1.0     0.284347     0.203859     0.137402  Biso 1.000000    Zn
   Zn   1.0     0.284344     0.203857     0.637401  Biso 1.000000    Zn
   Zn   1.0     0.284342     0.703849     0.137399  Biso 1.000000    Zn
   Zn   1.0     0.284339     0.703849     0.637399  Biso 1.000000    Zn
   Zn   1.0     0.784336     0.203859     0.137402  Biso 1.000000    Zn
   Zn   1.0     0.784333     0.203857     0.637401  Biso 1.000000    Zn
   Zn   1.0     0.784331     0.703850     0.137399  Biso 1.000000    Zn
   Zn   1.0     0.784328     0.703849     0.637399  Biso 1.000000    Zn
   Zn   1.0     0.034405     0.296092     0.362536  Biso 1.000000    Zn
   Zn   1.0     0.034402     0.296090     0.862535  Biso 1.000000    Zn
   Zn   1.0     0.034400     0.796082     0.362533  Biso 1.000000    Zn
   Zn   1.0     0.034397     0.796082     0.862533  Biso 1.000000    Zn
   Zn   1.0     0.534394     0.296092     0.362536  Biso 1.000000    Zn
   Zn   1.0     0.534391     0.296090     0.862535  Biso 1.000000    Zn
   Zn   1.0     0.534389     0.796083     0.362534  Biso 1.000000    Zn
   Zn   1.0     0.534386     0.796082     0.862533  Biso 1.000000    Zn
