#======================================================================

# CRYSTAL DATA

#----------------------------------------------------------------------

data_VESTA_phase_1


_pd_phase_name                         MOF
_cell_length_a                         18.79600
_cell_length_b                         18.64700
_cell_length_c                         19.47800
_cell_angle_alpha                      90.00100
_cell_angle_beta                       118.72200
_cell_angle_gamma                      90.02000
_symmetry_space_group_name_H-M         "P 1"
_symmetry_Int_Tables_number            1

loop_
_symmetry_equiv_pos_as_xyz
   "x, y, z"

loop_
   _atom_site_label
   _atom_site_occupancy
   _atom_site_fract_x
   _atom_site_fract_y
   _atom_site_fract_z
   _atom_site_adp_type
   _atom_site_B_iso_or_equiv
   _atom_site_type_symbol
    H   1.0     0.304115     0.255529     0.030317  Biso 1.000000     H
    H   1.0     0.304119     0.255525     0.530313  Biso 1.000000     H
    H   1.0     0.304114     0.755533     0.030319  Biso 1.000000     H
    H   1.0     0.304117     0.755528     0.530315  Biso 1.000000     H
    H   1.0     0.804102     0.255529     0.030316  Biso 1.000000     H
    H   1.0     0.804107     0.255524     0.530314  Biso 1.000000     H
    H   1.0     0.804101     0.755532     0.030317  Biso 1.000000     H
    H   1.0     0.804103     0.755529     0.530314  Biso 1.000000     H
    H   1.0     0.323757     0.172934     0.069047  Biso 1.000000     H
    H   1.0     0.323760     0.172932     0.569045  Biso 1.000000     H
    H   1.0     0.323754     0.672937     0.069046  Biso 1.000000     H
    H   1.0     0.323757     0.672935     0.569044  Biso 1.000000     H
    H   1.0     0.823745     0.172933     0.069045  Biso 1.000000     H
    H   1.0     0.823748     0.172930     0.569043  Biso 1.000000     H
    H   1.0     0.823741     0.672936     0.069045  Biso 1.000000     H
    H   1.0     0.823744     0.672933     0.569041  Biso 1.000000     H
    H   1.0     0.013852     0.380317     0.054366  Biso 1.000000     H
    H   1.0     0.013854     0.380315     0.554364  Biso 1.000000     H
    H   1.0     0.013847     0.880319     0.054364  Biso 1.000000     H
    H   1.0     0.013850     0.880316     0.554362  Biso 1.000000     H
    H   1.0     0.513842     0.380316     0.054366  Biso 1.000000     H
    H   1.0     0.513845     0.380314     0.554364  Biso 1.000000     H
    H   1.0     0.513838     0.880318     0.054365  Biso 1.000000     H
    H   1.0     0.513841     0.880315     0.554363  Biso 1.000000     H
    H   1.0     0.408427     0.286836     0.263008  Biso 1.000000     H
    H   1.0     0.408433     0.286834     0.763002  Biso 1.000000     H
    H   1.0     0.408423     0.786837     0.263007  Biso 1.000000     H
    H   1.0     0.408429     0.786836     0.763000  Biso 1.000000     H
    H   1.0     0.908418     0.286839     0.263007  Biso 1.000000     H
    H   1.0     0.908423     0.286837     0.763000  Biso 1.000000     H
    H   1.0     0.908414     0.786841     0.263005  Biso 1.000000     H
    H   1.0     0.908419     0.786839     0.762998  Biso 1.000000     H
    H   1.0     0.429055     0.380581     0.272510  Biso 1.000000     H
    H   1.0     0.429059     0.380578     0.772503  Biso 1.000000     H
    H   1.0     0.429050     0.880583     0.272508  Biso 1.000000     H
    H   1.0     0.429054     0.880581     0.772502  Biso 1.000000     H
    H   1.0     0.929044     0.380585     0.272510  Biso 1.000000     H
    H   1.0     0.929045     0.380583     0.772504  Biso 1.000000     H
    H   1.0     0.929038     0.880587     0.272508  Biso 1.000000     H
    H   1.0     0.929039     0.880585     0.772501  Biso 1.000000     H
    H   1.0     0.044540     0.203316     0.322108  Biso 1.000000     H
    H   1.0     0.044545     0.203320     0.822102  Biso 1.000000     H
    H   1.0     0.044537     0.703321     0.322106  Biso 1.000000     H
    H   1.0     0.044542     0.703324     0.822101  Biso 1.000000     H
    H   1.0     0.544529     0.203311     0.322110  Biso 1.000000     H
    H   1.0     0.544535     0.203313     0.822105  Biso 1.000000     H
    H   1.0     0.544526     0.703315     0.322109  Biso 1.000000     H
    H   1.0     0.544531     0.703317     0.822104  Biso 1.000000     H
    H   1.0     0.409894     0.218618     0.383869  Biso 1.000000     H
    H   1.0     0.409892     0.218611     0.883860  Biso 1.000000     H
    H   1.0     0.409888     0.718619     0.383867  Biso 1.000000     H
    H   1.0     0.409889     0.718613     0.883859  Biso 1.000000     H
    H   1.0     0.909885     0.218619     0.383868  Biso 1.000000     H
    H   1.0     0.909883     0.218613     0.883859  Biso 1.000000     H
    H   1.0     0.909881     0.718620     0.383865  Biso 1.000000     H
    H   1.0     0.909879     0.718614     0.883856  Biso 1.000000     H
    H   1.0     0.072665     0.361231     0.319130  Biso 1.000000     H
    H   1.0     0.072664     0.361228     0.819122  Biso 1.000000     H
    H   1.0     0.072659     0.861236     0.319129  Biso 1.000000     H
    H   1.0     0.072658     0.861233     0.819120  Biso 1.000000     H
    H   1.0     0.572650     0.361226     0.319126  Biso 1.000000     H
    H   1.0     0.572649     0.361220     0.819117  Biso 1.000000     H
    H   1.0     0.572643     0.861229     0.319123  Biso 1.000000     H
    H   1.0     0.572645     0.861225     0.819118  Biso 1.000000     H
    H   1.0     0.157327     0.137890     0.376892  Biso 1.000000     H
    H   1.0     0.157328     0.137890     0.876882  Biso 1.000000     H
    H   1.0     0.157323     0.637895     0.376892  Biso 1.000000     H
    H   1.0     0.157324     0.637895     0.876884  Biso 1.000000     H
    H   1.0     0.657321     0.137889     0.376887  Biso 1.000000     H
    H   1.0     0.657320     0.137888     0.876880  Biso 1.000000     H
    H   1.0     0.657316     0.637893     0.376887  Biso 1.000000     H
    H   1.0     0.657316     0.637892     0.876881  Biso 1.000000     H
    H   1.0     0.177614     0.161293     0.471851  Biso 1.000000     H
    H   1.0     0.177613     0.161291     0.971841  Biso 1.000000     H
    H   1.0     0.177610     0.661299     0.471851  Biso 1.000000     H
    H   1.0     0.177610     0.661298     0.971842  Biso 1.000000     H
    H   1.0     0.677604     0.161286     0.471847  Biso 1.000000     H
    H   1.0     0.677603     0.161284     0.971838  Biso 1.000000     H
    H   1.0     0.677600     0.661292     0.471846  Biso 1.000000     H
    H   1.0     0.677600     0.661289     0.971839  Biso 1.000000     H
    H   1.0     0.293502     0.205334     0.409889  Biso 1.000000     H
    H   1.0     0.293503     0.205333     0.909883  Biso 1.000000     H
    H   1.0     0.293499     0.705340     0.409889  Biso 1.000000     H
    H   1.0     0.293499     0.705339     0.909883  Biso 1.000000     H
    H   1.0     0.793494     0.205339     0.409889  Biso 1.000000     H
    H   1.0     0.793492     0.205335     0.909883  Biso 1.000000     H
    H   1.0     0.793488     0.705344     0.409888  Biso 1.000000     H
    H   1.0     0.793489     0.705339     0.909883  Biso 1.000000     H
    H   1.0     0.300564     0.119943     0.453672  Biso 1.000000     H
    H   1.0     0.300565     0.119940     0.953664  Biso 1.000000     H
    H   1.0     0.300560     0.619948     0.453671  Biso 1.000000     H
    H   1.0     0.300560     0.619945     0.953662  Biso 1.000000     H
    H   1.0     0.800558     0.119945     0.453670  Biso 1.000000     H
    H   1.0     0.800558     0.119940     0.953662  Biso 1.000000     H
    H   1.0     0.800553     0.619949     0.453667  Biso 1.000000     H
    H   1.0     0.800553     0.619944     0.953662  Biso 1.000000     H
    H   1.0     0.196077     0.005653     0.470105  Biso 1.000000     H
    H   1.0     0.196075     0.005648     0.970097  Biso 1.000000     H
    H   1.0     0.196074     0.505653     0.470105  Biso 1.000000     H
    H   1.0     0.196074     0.505650     0.970099  Biso 1.000000     H
    H   1.0     0.696065     0.005653     0.470104  Biso 1.000000     H
    H   1.0     0.696065     0.005649     0.970099  Biso 1.000000     H
    H   1.0     0.696062     0.505654     0.470104  Biso 1.000000     H
    H   1.0     0.696063     0.505649     0.970099  Biso 1.000000     H
    H   1.0     0.176413     0.423140     0.431111  Biso 1.000000     H
    H   1.0     0.176414     0.423137     0.931103  Biso 1.000000     H
    H   1.0     0.176410     0.923142     0.431111  Biso 1.000000     H
    H   1.0     0.176409     0.923138     0.931103  Biso 1.000000     H
    H   1.0     0.676402     0.423141     0.431108  Biso 1.000000     H
    H   1.0     0.676403     0.423137     0.931101  Biso 1.000000     H
    H   1.0     0.676398     0.923143     0.431108  Biso 1.000000     H
    H   1.0     0.676399     0.923140     0.931102  Biso 1.000000     H
    H   1.0     0.486113     0.130302     0.445575  Biso 1.000000     H
    H   1.0     0.486114     0.130299     0.945567  Biso 1.000000     H
    H   1.0     0.486110     0.630303     0.445575  Biso 1.000000     H
    H   1.0     0.486112     0.630301     0.945567  Biso 1.000000     H
    H   1.0     0.986104     0.130303     0.445578  Biso 1.000000     H
    H   1.0     0.986104     0.130300     0.945570  Biso 1.000000     H
    H   1.0     0.986101     0.630304     0.445578  Biso 1.000000     H
    H   1.0     0.986102     0.630302     0.945571  Biso 1.000000     H
    H   1.0     0.091656     0.036918     0.236951  Biso 1.000000     H
    H   1.0     0.091655     0.036917     0.736948  Biso 1.000000     H
    H   1.0     0.091653     0.536922     0.236952  Biso 1.000000     H
    H   1.0     0.091652     0.536920     0.736949  Biso 1.000000     H
    H   1.0     0.591648     0.036915     0.236948  Biso 1.000000     H
    H   1.0     0.591649     0.036913     0.736945  Biso 1.000000     H
    H   1.0     0.591645     0.536918     0.236949  Biso 1.000000     H
    H   1.0     0.591646     0.536916     0.736945  Biso 1.000000     H
    H   1.0     0.071013     0.130646     0.227464  Biso 1.000000     H
    H   1.0     0.071014     0.130645     0.727460  Biso 1.000000     H
    H   1.0     0.071009     0.630649     0.227464  Biso 1.000000     H
    H   1.0     0.071010     0.630648     0.727459  Biso 1.000000     H
    H   1.0     0.571003     0.130642     0.227463  Biso 1.000000     H
    H   1.0     0.571005     0.130641     0.727458  Biso 1.000000     H
    H   1.0     0.570999     0.630645     0.227462  Biso 1.000000     H
    H   1.0     0.571001     0.630644     0.727458  Biso 1.000000     H
    H   1.0     0.455500     0.453277     0.177909  Biso 1.000000     H
    H   1.0     0.455500     0.453278     0.677904  Biso 1.000000     H
    H   1.0     0.455496     0.953279     0.177907  Biso 1.000000     H
    H   1.0     0.455496     0.953281     0.677903  Biso 1.000000     H
    H   1.0     0.955489     0.453283     0.177912  Biso 1.000000     H
    H   1.0     0.955487     0.453286     0.677907  Biso 1.000000     H
    H   1.0     0.955484     0.953285     0.177910  Biso 1.000000     H
    H   1.0     0.955483     0.953288     0.677905  Biso 1.000000     H
    H   1.0     0.090076     0.468679     0.116067  Biso 1.000000     H
    H   1.0     0.090079     0.468676     0.616065  Biso 1.000000     H
    H   1.0     0.090071     0.968680     0.116066  Biso 1.000000     H
    H   1.0     0.090075     0.968676     0.616064  Biso 1.000000     H
    H   1.0     0.590069     0.468679     0.116064  Biso 1.000000     H
    H   1.0     0.590071     0.468676     0.616060  Biso 1.000000     H
    H   1.0     0.590063     0.968681     0.116063  Biso 1.000000     H
    H   1.0     0.590068     0.968677     0.616060  Biso 1.000000     H
    H   1.0     0.427440     0.111176     0.180937  Biso 1.000000     H
    H   1.0     0.427445     0.111173     0.680935  Biso 1.000000     H
    H   1.0     0.427436     0.611177     0.180937  Biso 1.000000     H
    H   1.0     0.427439     0.611174     0.680934  Biso 1.000000     H
    H   1.0     0.927422     0.111181     0.180934  Biso 1.000000     H
    H   1.0     0.927426     0.111179     0.680931  Biso 1.000000     H
    H   1.0     0.927418     0.611182     0.180933  Biso 1.000000     H
    H   1.0     0.927421     0.611180     0.680929  Biso 1.000000     H
    H   1.0     0.342472     0.387873     0.123480  Biso 1.000000     H
    H   1.0     0.342475     0.387872     0.623477  Biso 1.000000     H
    H   1.0     0.342465     0.887876     0.123481  Biso 1.000000     H
    H   1.0     0.342470     0.887875     0.623478  Biso 1.000000     H
    H   1.0     0.842464     0.387874     0.123477  Biso 1.000000     H
    H   1.0     0.842467     0.387875     0.623473  Biso 1.000000     H
    H   1.0     0.842459     0.887877     0.123478  Biso 1.000000     H
    H   1.0     0.842462     0.887877     0.623473  Biso 1.000000     H
    H   1.0     0.322392     0.410984     0.028510  Biso 1.000000     H
    H   1.0     0.322395     0.410983     0.528507  Biso 1.000000     H
    H   1.0     0.322386     0.910987     0.028511  Biso 1.000000     H
    H   1.0     0.322391     0.910985     0.528509  Biso 1.000000     H
    H   1.0     0.822383     0.410988     0.028507  Biso 1.000000     H
    H   1.0     0.822386     0.410987     0.528504  Biso 1.000000     H
    H   1.0     0.822378     0.910990     0.028508  Biso 1.000000     H
    H   1.0     0.822382     0.910990     0.528504  Biso 1.000000     H
    H   1.0     0.206377     0.455224     0.090246  Biso 1.000000     H
    H   1.0     0.206380     0.455223     0.590242  Biso 1.000000     H
    H   1.0     0.206370     0.955228     0.090246  Biso 1.000000     H
    H   1.0     0.206375     0.955226     0.590242  Biso 1.000000     H
    H   1.0     0.706366     0.455219     0.090246  Biso 1.000000     H
    H   1.0     0.706370     0.455219     0.590241  Biso 1.000000     H
    H   1.0     0.706361     0.955222     0.090246  Biso 1.000000     H
    H   1.0     0.706365     0.955221     0.590241  Biso 1.000000     H
    H   1.0     0.199206     0.369900     0.046281  Biso 1.000000     H
    H   1.0     0.199208     0.369897     0.546279  Biso 1.000000     H
    H   1.0     0.199199     0.869903     0.046281  Biso 1.000000     H
    H   1.0     0.199204     0.869900     0.546280  Biso 1.000000     H
    H   1.0     0.699198     0.369896     0.046278  Biso 1.000000     H
    H   1.0     0.699201     0.369895     0.546275  Biso 1.000000     H
    H   1.0     0.699193     0.869899     0.046278  Biso 1.000000     H
    H   1.0     0.699197     0.869896     0.546275  Biso 1.000000     H
    C   1.0     0.494095     0.351528     0.499879  Biso 1.000000     C
    C   1.0     0.494093     0.351525     0.999871  Biso 1.000000     C
    C   1.0     0.494090     0.851529     0.499877  Biso 1.000000     C
    C   1.0     0.494089     0.851527     0.999870  Biso 1.000000     C
    C   1.0     0.994080     0.351530     0.499878  Biso 1.000000     C
    C   1.0     0.994079     0.351527     0.999870  Biso 1.000000     C
    C   1.0     0.994075     0.851531     0.499876  Biso 1.000000     C
    C   1.0     0.994073     0.851529     0.999867  Biso 1.000000     C
    C   1.0     0.452918     0.327928     0.298891  Biso 1.000000     C
    C   1.0     0.452915     0.327927     0.798893  Biso 1.000000     C
    C   1.0     0.452912     0.827930     0.298890  Biso 1.000000     C
    C   1.0     0.452911     0.827930     0.798890  Biso 1.000000     C
    C   1.0     0.952908     0.327931     0.298890  Biso 1.000000     C
    C   1.0     0.952905     0.327931     0.798891  Biso 1.000000     C
    C   1.0     0.952903     0.827934     0.298888  Biso 1.000000     C
    C   1.0     0.952900     0.827934     0.798889  Biso 1.000000     C
    C   1.0     0.439356     0.268600     0.411172  Biso 1.000000     C
    C   1.0     0.439353     0.268594     0.911165  Biso 1.000000     C
    C   1.0     0.439350     0.768601     0.411170  Biso 1.000000     C
    C   1.0     0.439350     0.768595     0.911164  Biso 1.000000     C
    C   1.0     0.939344     0.268602     0.411170  Biso 1.000000     C
    C   1.0     0.939342     0.268596     0.911163  Biso 1.000000     C
    C   1.0     0.939340     0.768604     0.411168  Biso 1.000000     C
    C   1.0     0.939337     0.768597     0.911161  Biso 1.000000     C
    C   1.0     0.032161     0.315090     0.294041  Biso 1.000000     C
    C   1.0     0.032151     0.315092     0.794032  Biso 1.000000     C
    C   1.0     0.032157     0.815095     0.294039  Biso 1.000000     C
    C   1.0     0.032146     0.815096     0.794030  Biso 1.000000     C
    C   1.0     0.532145     0.315084     0.294040  Biso 1.000000     C
    C   1.0     0.532133     0.315085     0.794030  Biso 1.000000     C
    C   1.0     0.532137     0.815089     0.294037  Biso 1.000000     C
    C   1.0     0.532132     0.815089     0.794030  Biso 1.000000     C
    C   1.0     0.008165     0.309949     0.206497  Biso 1.000000     C
    C   1.0     0.008162     0.309953     0.706490  Biso 1.000000     C
    C   1.0     0.008159     0.809953     0.206495  Biso 1.000000     C
    C   1.0     0.008159     0.809958     0.706489  Biso 1.000000     C
    C   1.0     0.508141     0.309937     0.206495  Biso 1.000000     C
    C   1.0     0.508141     0.309939     0.706489  Biso 1.000000     C
    C   1.0     0.508140     0.809941     0.206494  Biso 1.000000     C
    C   1.0     0.508136     0.809943     0.706487  Biso 1.000000     C
    C   1.0     0.153112     0.251783     0.394485  Biso 1.000000     C
    C   1.0     0.153114     0.251780     0.894474  Biso 1.000000     C
    C   1.0     0.153108     0.751788     0.394484  Biso 1.000000     C
    C   1.0     0.153110     0.751785     0.894473  Biso 1.000000     C
    C   1.0     0.653100     0.251780     0.394484  Biso 1.000000     C
    C   1.0     0.653101     0.251775     0.894472  Biso 1.000000     C
    C   1.0     0.653096     0.751783     0.394480  Biso 1.000000     C
    C   1.0     0.653097     0.751780     0.894473  Biso 1.000000     C
    C   1.0     0.462504     0.323828     0.379319  Biso 1.000000     C
    C   1.0     0.462511     0.323823     0.879325  Biso 1.000000     C
    C   1.0     0.462501     0.823829     0.379320  Biso 1.000000     C
    C   1.0     0.462506     0.823825     0.879321  Biso 1.000000     C
    C   1.0     0.962492     0.323830     0.379318  Biso 1.000000     C
    C   1.0     0.962497     0.323826     0.879321  Biso 1.000000     C
    C   1.0     0.962487     0.823832     0.379315  Biso 1.000000     C
    C   1.0     0.962493     0.823827     0.879319  Biso 1.000000     C
    C   1.0     0.189108     0.177455     0.423609  Biso 1.000000     C
    C   1.0     0.189111     0.177453     0.923602  Biso 1.000000     C
    C   1.0     0.189103     0.677460     0.423609  Biso 1.000000     C
    C   1.0     0.189107     0.677459     0.923602  Biso 1.000000     C
    C   1.0     0.689099     0.177453     0.423607  Biso 1.000000     C
    C   1.0     0.689103     0.177450     0.923601  Biso 1.000000     C
    C   1.0     0.689095     0.677457     0.423606  Biso 1.000000     C
    C   1.0     0.689098     0.677454     0.923601  Biso 1.000000     C
    C   1.0     0.280210     0.175483     0.451015  Biso 1.000000     C
    C   1.0     0.280214     0.175480     0.951011  Biso 1.000000     C
    C   1.0     0.280206     0.675489     0.451014  Biso 1.000000     C
    C   1.0     0.280211     0.675485     0.951010  Biso 1.000000     C
    C   1.0     0.780201     0.175485     0.451013  Biso 1.000000     C
    C   1.0     0.780206     0.175480     0.951011  Biso 1.000000     C
    C   1.0     0.780198     0.675489     0.451014  Biso 1.000000     C
    C   1.0     0.780202     0.675484     0.951010  Biso 1.000000     C
    C   1.0     0.005886     0.101536     0.000067  Biso 1.000000     C
    C   1.0     0.005891     0.101534     0.500065  Biso 1.000000     C
    C   1.0     0.005884     0.601538     0.000068  Biso 1.000000     C
    C   1.0     0.005888     0.601535     0.500065  Biso 1.000000     C
    C   1.0     0.505873     0.101535     0.000064  Biso 1.000000     C
    C   1.0     0.505878     0.101533     0.500062  Biso 1.000000     C
    C   1.0     0.505871     0.601537     0.000065  Biso 1.000000     C
    C   1.0     0.505874     0.601534     0.500062  Biso 1.000000     C
    C   1.0     0.047152     0.077974     0.201085  Biso 1.000000     C
    C   1.0     0.047157     0.077974     0.701075  Biso 1.000000     C
    C   1.0     0.047148     0.577977     0.201085  Biso 1.000000     C
    C   1.0     0.047153     0.577977     0.701076  Biso 1.000000     C
    C   1.0     0.547141     0.077970     0.201084  Biso 1.000000     C
    C   1.0     0.547148     0.077969     0.701075  Biso 1.000000     C
    C   1.0     0.547139     0.577972     0.201083  Biso 1.000000     C
    C   1.0     0.547143     0.577972     0.701076  Biso 1.000000     C
    C   1.0     0.060631     0.018644     0.088771  Biso 1.000000     C
    C   1.0     0.060637     0.018640     0.588767  Biso 1.000000     C
    C   1.0     0.060629     0.518647     0.088772  Biso 1.000000     C
    C   1.0     0.060633     0.518643     0.588767  Biso 1.000000     C
    C   1.0     0.560622     0.018645     0.088768  Biso 1.000000     C
    C   1.0     0.560627     0.018640     0.588764  Biso 1.000000     C
    C   1.0     0.560620     0.518646     0.088769  Biso 1.000000     C
    C   1.0     0.560623     0.518643     0.588764  Biso 1.000000     C
    C   1.0     0.467947     0.065061     0.205984  Biso 1.000000     C
    C   1.0     0.467959     0.065061     0.705983  Biso 1.000000     C
    C   1.0     0.467945     0.565063     0.205985  Biso 1.000000     C
    C   1.0     0.467953     0.565063     0.705982  Biso 1.000000     C
    C   1.0     0.967932     0.065068     0.205985  Biso 1.000000     C
    C   1.0     0.967942     0.065069     0.705983  Biso 1.000000     C
    C   1.0     0.967929     0.565069     0.205985  Biso 1.000000     C
    C   1.0     0.967937     0.565071     0.705983  Biso 1.000000     C
    C   1.0     0.491968     0.059895     0.293529  Biso 1.000000     C
    C   1.0     0.491969     0.059897     0.793525  Biso 1.000000     C
    C   1.0     0.491962     0.559898     0.293528  Biso 1.000000     C
    C   1.0     0.491968     0.559899     0.793525  Biso 1.000000     C
    C   1.0     0.991951     0.059906     0.293529  Biso 1.000000     C
    C   1.0     0.991955     0.059909     0.793525  Biso 1.000000     C
    C   1.0     0.991950     0.559908     0.293530  Biso 1.000000     C
    C   1.0     0.991954     0.559911     0.793526  Biso 1.000000     C
    C   1.0     0.346903     0.001687     0.105662  Biso 1.000000     C
    C   1.0     0.346905     0.001684     0.605662  Biso 1.000000     C
    C   1.0     0.346901     0.501687     0.105663  Biso 1.000000     C
    C   1.0     0.346903     0.501685     0.605660  Biso 1.000000     C
    C   1.0     0.846891     0.001688     0.105663  Biso 1.000000     C
    C   1.0     0.846893     0.001686     0.605660  Biso 1.000000     C
    C   1.0     0.846889     0.501689     0.105661  Biso 1.000000     C
    C   1.0     0.846890     0.501688     0.605659  Biso 1.000000     C
    C   1.0     0.037512     0.073866     0.120636  Biso 1.000000     C
    C   1.0     0.037511     0.073863     0.620625  Biso 1.000000     C
    C   1.0     0.037510     0.573869     0.120636  Biso 1.000000     C
    C   1.0     0.037508     0.573866     0.620626  Biso 1.000000     C
    C   1.0     0.537502     0.073865     0.120635  Biso 1.000000     C
    C   1.0     0.537501     0.073861     0.620624  Biso 1.000000     C
    C   1.0     0.537499     0.573866     0.120634  Biso 1.000000     C
    C   1.0     0.537498     0.573864     0.620626  Biso 1.000000     C
    C   1.0     0.310811     0.427337     0.076643  Biso 1.000000     C
    C   1.0     0.310812     0.427335     0.576639  Biso 1.000000     C
    C   1.0     0.310806     0.927340     0.076644  Biso 1.000000     C
    C   1.0     0.310807     0.927338     0.576640  Biso 1.000000     C
    C   1.0     0.810802     0.427339     0.076641  Biso 1.000000     C
    C   1.0     0.810802     0.427338     0.576636  Biso 1.000000     C
    C   1.0     0.810796     0.927341     0.076642  Biso 1.000000     C
    C   1.0     0.810797     0.927340     0.576636  Biso 1.000000     C
    C   1.0     0.219682     0.425432     0.049099  Biso 1.000000     C
    C   1.0     0.219683     0.425430     0.549094  Biso 1.000000     C
    C   1.0     0.219677     0.925436     0.049101  Biso 1.000000     C
    C   1.0     0.219678     0.925433     0.549093  Biso 1.000000     C
    C   1.0     0.719674     0.425430     0.049099  Biso 1.000000     C
    C   1.0     0.719673     0.425428     0.549091  Biso 1.000000     C
    C   1.0     0.719668     0.925432     0.049098  Biso 1.000000     C
    C   1.0     0.719668     0.925430     0.549091  Biso 1.000000     C
    N   1.0     0.329812     0.206817     0.030282  Biso 1.000000     N
    N   1.0     0.329814     0.206812     0.530277  Biso 1.000000     N
    N   1.0     0.329809     0.706821     0.030282  Biso 1.000000     N
    N   1.0     0.329811     0.706815     0.530277  Biso 1.000000     N
    N   1.0     0.829801     0.206817     0.030282  Biso 1.000000     N
    N   1.0     0.829802     0.206812     0.530276  Biso 1.000000     N
    N   1.0     0.829798     0.706820     0.030282  Biso 1.000000     N
    N   1.0     0.829799     0.706816     0.530276  Biso 1.000000     N
    N   1.0     0.497613     0.376654     0.436436  Biso 1.000000     N
    N   1.0     0.497616     0.376658     0.936432  Biso 1.000000     N
    N   1.0     0.497609     0.876658     0.436435  Biso 1.000000     N
    N   1.0     0.497611     0.876659     0.936430  Biso 1.000000     N
    N   1.0     0.997599     0.376656     0.436436  Biso 1.000000     N
    N   1.0     0.997601     0.376659     0.936431  Biso 1.000000     N
    N   1.0     0.997594     0.876658     0.436434  Biso 1.000000     N
    N   1.0     0.997596     0.876661     0.936429  Biso 1.000000     N
    N   1.0     0.075406     0.251652     0.336626  Biso 1.000000     N
    N   1.0     0.075408     0.251657     0.836615  Biso 1.000000     N
    N   1.0     0.075402     0.751656     0.336624  Biso 1.000000     N
    N   1.0     0.075404     0.751662     0.836614  Biso 1.000000     N
    N   1.0     0.575392     0.251647     0.336628  Biso 1.000000     N
    N   1.0     0.575394     0.251652     0.836617  Biso 1.000000     N
    N   1.0     0.575388     0.751653     0.336625  Biso 1.000000     N
    N   1.0     0.575390     0.751655     0.836616  Biso 1.000000     N
    N   1.0     0.459447     0.286125     0.487465  Biso 1.000000     N
    N   1.0     0.459448     0.286121     0.987458  Biso 1.000000     N
    N   1.0     0.459443     0.786126     0.487463  Biso 1.000000     N
    N   1.0     0.459445     0.786122     0.987456  Biso 1.000000     N
    N   1.0     0.959435     0.286125     0.487463  Biso 1.000000     N
    N   1.0     0.959436     0.286122     0.987457  Biso 1.000000     N
    N   1.0     0.959431     0.786127     0.487461  Biso 1.000000     N
    N   1.0     0.959432     0.786123     0.987454  Biso 1.000000     N
    N   1.0     0.170270     0.456914     0.469902  Biso 1.000000     N
    N   1.0     0.170272     0.456910     0.969896  Biso 1.000000     N
    N   1.0     0.170265     0.956917     0.469901  Biso 1.000000     N
    N   1.0     0.170267     0.956911     0.969896  Biso 1.000000     N
    N   1.0     0.670259     0.456914     0.469900  Biso 1.000000     N
    N   1.0     0.670262     0.456908     0.969896  Biso 1.000000     N
    N   1.0     0.670255     0.956916     0.469900  Biso 1.000000     N
    N   1.0     0.670257     0.956911     0.969896  Biso 1.000000     N
    N   1.0     0.002402     0.126672     0.063526  Biso 1.000000     N
    N   1.0     0.002404     0.126673     0.563521  Biso 1.000000     N
    N   1.0     0.002399     0.626674     0.063526  Biso 1.000000     N
    N   1.0     0.002401     0.626675     0.563521  Biso 1.000000     N
    N   1.0     0.502389     0.126669     0.063524  Biso 1.000000     N
    N   1.0     0.502391     0.126670     0.563518  Biso 1.000000     N
    N   1.0     0.502386     0.626671     0.063524  Biso 1.000000     N
    N   1.0     0.502387     0.626671     0.563518  Biso 1.000000     N
    N   1.0     0.424662     0.001603     0.163399  Biso 1.000000     N
    N   1.0     0.424665     0.001606     0.663398  Biso 1.000000     N
    N   1.0     0.424660     0.501605     0.163400  Biso 1.000000     N
    N   1.0     0.424662     0.501606     0.663398  Biso 1.000000     N
    N   1.0     0.924648     0.001609     0.163403  Biso 1.000000     N
    N   1.0     0.924650     0.001613     0.663401  Biso 1.000000     N
    N   1.0     0.924646     0.501609     0.163403  Biso 1.000000     N
    N   1.0     0.924646     0.501614     0.663402  Biso 1.000000     N
    N   1.0     0.040515     0.036151     0.012473  Biso 1.000000     N
    N   1.0     0.040518     0.036147     0.512469  Biso 1.000000     N
    N   1.0     0.040513     0.536153     0.012474  Biso 1.000000     N
    N   1.0     0.040515     0.536149     0.512470  Biso 1.000000     N
    N   1.0     0.540503     0.036150     0.012470  Biso 1.000000     N
    N   1.0     0.540505     0.036147     0.512465  Biso 1.000000     N
    N   1.0     0.540501     0.536152     0.012471  Biso 1.000000     N
    N   1.0     0.540503     0.536149     0.512465  Biso 1.000000     N
    O   1.0    -0.002986     0.245611     0.178599  Biso 1.000000     O
    O   1.0    -0.002979     0.245615     0.678595  Biso 1.000000     O
    O   1.0    -0.002988     0.745616     0.178597  Biso 1.000000     O
    O   1.0    -0.002982     0.745619     0.678593  Biso 1.000000     O
    O   1.0     0.497002     0.245597     0.178602  Biso 1.000000     O
    O   1.0     0.497008     0.245598     0.678599  Biso 1.000000     O
    O   1.0     0.496999     0.745601     0.178601  Biso 1.000000     O
    O   1.0     0.497005     0.745603     0.678597  Biso 1.000000     O
    O   1.0     0.497315     0.366376     0.168059  Biso 1.000000     O
    O   1.0     0.497327     0.366379     0.668056  Biso 1.000000     O
    O   1.0     0.497313     0.866381     0.168058  Biso 1.000000     O
    O   1.0     0.497323     0.866384     0.668055  Biso 1.000000     O
    O   1.0     0.997315     0.366391     0.168065  Biso 1.000000     O
    O   1.0     0.997325     0.366396     0.668062  Biso 1.000000     O
    O   1.0     0.997311     0.866396     0.168064  Biso 1.000000     O
    O   1.0     0.997323     0.866401     0.668061  Biso 1.000000     O
    O   1.0     0.195173     0.307121     0.422249  Biso 1.000000     O
    O   1.0     0.195172     0.307118     0.922247  Biso 1.000000     O
    O   1.0     0.195169     0.807126     0.422246  Biso 1.000000     O
    O   1.0     0.195167     0.807123     0.922247  Biso 1.000000     O
    O   1.0     0.695160     0.307119     0.422243  Biso 1.000000     O
    O   1.0     0.695158     0.307114     0.922246  Biso 1.000000     O
    O   1.0     0.695153     0.807123     0.422245  Biso 1.000000     O
    O   1.0     0.695155     0.807118     0.922243  Biso 1.000000     O
    O   1.0     0.503148     0.495557     0.321404  Biso 1.000000     O
    O   1.0     0.503148     0.495558     0.821398  Biso 1.000000     O
    O   1.0     0.503144     0.995557     0.321403  Biso 1.000000     O
    O   1.0     0.503143     0.995559     0.821397  Biso 1.000000     O
    O   1.0     0.000000     0.495569     0.321409  Biso 1.000000     O
    O   1.0     0.000000     0.495572     0.821402  Biso 1.000000     O
    O   1.0     0.000000     0.995570     0.321408  Biso 1.000000     O
    O   1.0     0.000000     0.995573     0.821401  Biso 1.000000     O
    O   1.0     0.002762     0.116341     0.331976  Biso 1.000000     O
    O   1.0     0.002756     0.116345     0.831969  Biso 1.000000     O
    O   1.0     0.002759     0.616344     0.331975  Biso 1.000000     O
    O   1.0     0.002754     0.616348     0.831969  Biso 1.000000     O
    O   1.0     0.502762     0.116328     0.331981  Biso 1.000000     O
    O   1.0     0.502757     0.116331     0.831975  Biso 1.000000     O
    O   1.0     0.502757     0.616332     0.331980  Biso 1.000000     O
    O   1.0     0.502755     0.616333     0.831974  Biso 1.000000     O
    O   1.0     0.304873     0.057017     0.077913  Biso 1.000000     O
    O   1.0     0.304879     0.057014     0.577902  Biso 1.000000     O
    O   1.0     0.304873     0.557017     0.077908  Biso 1.000000     O
    O   1.0     0.304876     0.557015     0.577903  Biso 1.000000     O
    O   1.0     0.804860     0.057017     0.077907  Biso 1.000000     O
    O   1.0     0.804864     0.057014     0.577898  Biso 1.000000     O
    O   1.0     0.804857     0.557017     0.077908  Biso 1.000000     O
    O   1.0     0.804861     0.557016     0.577897  Biso 1.000000     O
   Zn   1.0     0.452801     0.221746     0.065771  Biso 1.000000    Zn
   Zn   1.0     0.452802     0.221746     0.565768  Biso 1.000000    Zn
   Zn   1.0     0.452798     0.721748     0.065771  Biso 1.000000    Zn
   Zn   1.0     0.452798     0.721748     0.565767  Biso 1.000000    Zn
   Zn   1.0     0.952789     0.221748     0.065771  Biso 1.000000    Zn
   Zn   1.0     0.952789     0.221749     0.565768  Biso 1.000000    Zn
   Zn   1.0     0.952785     0.721751     0.065770  Biso 1.000000    Zn
   Zn   1.0     0.952786     0.721751     0.565766  Biso 1.000000    Zn
   Zn   1.0     0.047250     0.471757     0.434222  Biso 1.000000    Zn
   Zn   1.0     0.047252     0.471759     0.934215  Biso 1.000000    Zn
   Zn   1.0     0.047245     0.971759     0.434221  Biso 1.000000    Zn
   Zn   1.0     0.047247     0.971761     0.934214  Biso 1.000000    Zn
   Zn   1.0     0.547238     0.471755     0.434219  Biso 1.000000    Zn
   Zn   1.0     0.547242     0.471758     0.934213  Biso 1.000000    Zn
   Zn   1.0     0.547234     0.971758     0.434219  Biso 1.000000    Zn
   Zn   1.0     0.547237     0.971759     0.934213  Biso 1.000000    Zn
