#======================================================================

# CRYSTAL DATA

#----------------------------------------------------------------------

data_VESTA_phase_1


_pd_phase_name                         MOF
_cell_length_a                         18.46300
_cell_length_b                         21.01500
_cell_length_c                         15.66800
_cell_angle_alpha                      94.02900
_cell_angle_beta                       89.95800
_cell_angle_gamma                      89.91000
_symmetry_space_group_name_H-M         "P 1"
_symmetry_Int_Tables_number            1

loop_
_symmetry_equiv_pos_as_xyz
   "x, y, z"

loop_
   _atom_site_label
   _atom_site_occupancy
   _atom_site_fract_x
   _atom_site_fract_y
   _atom_site_fract_z
   _atom_site_adp_type
   _atom_site_B_iso_or_equiv
   _atom_site_type_symbol
    H   1.0     0.060806     0.206820     0.774942  Biso 1.000000     H
    H   1.0     0.061041     0.706897     0.773427  Biso 1.000000     H
    H   1.0     0.560818     0.206820     0.774942  Biso 1.000000     H
    H   1.0     0.561053     0.706897     0.773427  Biso 1.000000     H
    H   1.0     0.069740     0.249619     0.692028  Biso 1.000000     H
    H   1.0     0.070663     0.750215     0.691177  Biso 1.000000     H
    H   1.0     0.569752     0.249619     0.692028  Biso 1.000000     H
    H   1.0     0.570675     0.750215     0.691177  Biso 1.000000     H
    H   1.0     0.289796     0.090180     0.284838  Biso 1.000000     H
    H   1.0     0.289978     0.589995     0.285164  Biso 1.000000     H
    H   1.0     0.789809     0.090180     0.284838  Biso 1.000000     H
    H   1.0     0.789990     0.589995     0.285164  Biso 1.000000     H
    H   1.0     0.122435     0.090552     0.102580  Biso 1.000000     H
    H   1.0     0.122369     0.590701     0.103253  Biso 1.000000     H
    H   1.0     0.622448     0.090552     0.102580  Biso 1.000000     H
    H   1.0     0.622381     0.590701     0.103253  Biso 1.000000     H
    H   1.0     0.278806     0.265185     0.067924  Biso 1.000000     H
    H   1.0     0.277896     0.765908     0.069877  Biso 1.000000     H
    H   1.0     0.778818     0.265185     0.067924  Biso 1.000000     H
    H   1.0     0.777908     0.765908     0.069877  Biso 1.000000     H
    H   1.0     0.187427     0.155985     0.985089  Biso 1.000000     H
    H   1.0     0.186950     0.656717     0.986216  Biso 1.000000     H
    H   1.0     0.687440     0.155985     0.985089  Biso 1.000000     H
    H   1.0     0.686962     0.656717     0.986216  Biso 1.000000     H
    H   1.0     0.283398     0.162549     0.991139  Biso 1.000000     H
    H   1.0     0.282906     0.663512     0.992158  Biso 1.000000     H
    H   1.0     0.783410     0.162549     0.991139  Biso 1.000000     H
    H   1.0     0.782919     0.663512     0.992158  Biso 1.000000     H
    H   1.0     0.113147     0.283928     0.267379  Biso 1.000000     H
    H   1.0     0.110261     0.784381     0.268187  Biso 1.000000     H
    H   1.0     0.613159     0.283928     0.267379  Biso 1.000000     H
    H   1.0     0.610273     0.784381     0.268187  Biso 1.000000     H
    H   1.0     0.065956     0.322844     0.189751  Biso 1.000000     H
    H   1.0     0.064312     0.823520     0.189702  Biso 1.000000     H
    H   1.0     0.565969     0.322844     0.189751  Biso 1.000000     H
    H   1.0     0.564324     0.823520     0.189702  Biso 1.000000     H
    H   1.0     0.079896     0.442749     0.193608  Biso 1.000000     H
    H   1.0     0.080142     0.943357     0.193033  Biso 1.000000     H
    H   1.0     0.579909     0.442749     0.193608  Biso 1.000000     H
    H   1.0     0.580155     0.943357     0.193033  Biso 1.000000     H
    H   1.0     0.168870     0.440872     0.191998  Biso 1.000000     H
    H   1.0     0.169093     0.940485     0.193306  Biso 1.000000     H
    H   1.0     0.668882     0.440872     0.191998  Biso 1.000000     H
    H   1.0     0.669106     0.940485     0.193306  Biso 1.000000     H
    H   1.0     0.081586     0.389770     0.329633  Biso 1.000000     H
    H   1.0     0.079039     0.890759     0.329533  Biso 1.000000     H
    H   1.0     0.581598     0.389769     0.329633  Biso 1.000000     H
    H   1.0     0.579051     0.890759     0.329532  Biso 1.000000     H
    H   1.0     0.176918     0.386276     0.316527  Biso 1.000000     H
    H   1.0     0.174396     0.886196     0.318190  Biso 1.000000     H
    H   1.0     0.676931     0.386276     0.316528  Biso 1.000000     H
    H   1.0     0.674408     0.886196     0.318191  Biso 1.000000     H
    H   1.0     0.129884     0.359373     0.626907  Biso 1.000000     H
    H   1.0     0.130117     0.859180     0.626919  Biso 1.000000     H
    H   1.0     0.629896     0.359373     0.626907  Biso 1.000000     H
    H   1.0     0.630130     0.859180     0.626918  Biso 1.000000     H
    H   1.0     0.118628     0.247771     0.091327  Biso 1.000000     H
    H   1.0     0.117579     0.748298     0.091801  Biso 1.000000     H
    H   1.0     0.618641     0.247771     0.091327  Biso 1.000000     H
    H   1.0     0.617591     0.748298     0.091801  Biso 1.000000     H
    H   1.0     0.294287     0.024870     0.549779  Biso 1.000000     H
    H   1.0     0.294565     0.524605     0.549475  Biso 1.000000     H
    H   1.0     0.794300     0.024870     0.549779  Biso 1.000000     H
    H   1.0     0.794578     0.524605     0.549475  Biso 1.000000     H
    H   1.0     0.136713     0.018266     0.592715  Biso 1.000000     H
    H   1.0     0.137120     0.518386     0.592943  Biso 1.000000     H
    H   1.0     0.636726     0.018266     0.592715  Biso 1.000000     H
    H   1.0     0.637133     0.518386     0.592943  Biso 1.000000     H
    H   1.0     0.183602     0.170920     0.763144  Biso 1.000000     H
    H   1.0     0.183711     0.670400     0.761775  Biso 1.000000     H
    H   1.0     0.683615     0.170920     0.763144  Biso 1.000000     H
    H   1.0     0.683723     0.670401     0.761775  Biso 1.000000     H
    H   1.0     0.197292     0.219132     0.676610  Biso 1.000000     H
    H   1.0     0.198006     0.719215     0.675935  Biso 1.000000     H
    H   1.0     0.697305     0.219132     0.676610  Biso 1.000000     H
    H   1.0     0.698019     0.719215     0.675934  Biso 1.000000     H
    H   1.0     0.284037     0.386503     0.823453  Biso 1.000000     H
    H   1.0     0.284037     0.886699     0.823654  Biso 1.000000     H
    H   1.0     0.784050     0.386503     0.823453  Biso 1.000000     H
    H   1.0     0.784050     0.886699     0.823654  Biso 1.000000     H
    H   1.0     0.094324     0.103702     0.676272  Biso 1.000000     H
    H   1.0     0.094053     0.604399     0.673852  Biso 1.000000     H
    H   1.0     0.594337     0.103702     0.676272  Biso 1.000000     H
    H   1.0     0.594066     0.604399     0.673852  Biso 1.000000     H
    H   1.0     0.097045     0.158374     0.595335  Biso 1.000000     H
    H   1.0     0.097770     0.659550     0.593485  Biso 1.000000     H
    H   1.0     0.597057     0.158374     0.595335  Biso 1.000000     H
    H   1.0     0.597782     0.659550     0.593485  Biso 1.000000     H
    H   1.0     0.195989     0.410599     0.505007  Biso 1.000000     H
    H   1.0     0.196202     0.910531     0.505056  Biso 1.000000     H
    H   1.0     0.696002     0.410599     0.505007  Biso 1.000000     H
    H   1.0     0.696215     0.910531     0.505056  Biso 1.000000     H
    H   1.0     0.291703     0.413776     0.512461  Biso 1.000000     H
    H   1.0     0.291894     0.913980     0.512643  Biso 1.000000     H
    H   1.0     0.791716     0.413776     0.512461  Biso 1.000000     H
    H   1.0     0.791906     0.913980     0.512643  Biso 1.000000     H
    H   1.0     0.310743     0.293896     0.225126  Biso 1.000000     H
    H   1.0     0.310703     0.793775     0.226625  Biso 1.000000     H
    H   1.0     0.810756     0.293896     0.225126  Biso 1.000000     H
    H   1.0     0.810715     0.793776     0.226625  Biso 1.000000     H
    H   1.0     0.319607     0.251009     0.307957  Biso 1.000000     H
    H   1.0     0.320136     0.750414     0.308817  Biso 1.000000     H
    H   1.0     0.819620     0.251009     0.307957  Biso 1.000000     H
    H   1.0     0.820149     0.750414     0.308817  Biso 1.000000     H
    H   1.0     0.039743     0.411059     0.716637  Biso 1.000000     H
    H   1.0     0.039777     0.910772     0.716358  Biso 1.000000     H
    H   1.0     0.539755     0.411059     0.716637  Biso 1.000000     H
    H   1.0     0.539790     0.910772     0.716358  Biso 1.000000     H
    H   1.0     0.372983     0.410974     0.900001  Biso 1.000000     H
    H   1.0     0.372977     0.910124     0.899630  Biso 1.000000     H
    H   1.0     0.872996     0.410974     0.900001  Biso 1.000000     H
    H   1.0     0.872990     0.910124     0.899630  Biso 1.000000     H
    H   1.0     0.029047     0.235045     0.932498  Biso 1.000000     H
    H   1.0     0.028921     0.734001     0.931932  Biso 1.000000     H
    H   1.0     0.529060     0.235045     0.932498  Biso 1.000000     H
    H   1.0     0.528933     0.734001     0.931932  Biso 1.000000     H
    H   1.0     0.437810     0.344303     0.016213  Biso 1.000000     H
    H   1.0     0.438041     0.843498     0.015693  Biso 1.000000     H
    H   1.0     0.937823     0.344303     0.016213  Biso 1.000000     H
    H   1.0     0.938053     0.843498     0.015694  Biso 1.000000     H
    H   1.0     0.033748     0.337392     0.009778  Biso 1.000000     H
    H   1.0     0.033964     0.836494     0.008987  Biso 1.000000     H
    H   1.0     0.533761     0.337392     0.009778  Biso 1.000000     H
    H   1.0     0.533977     0.836494     0.008987  Biso 1.000000     H
    H   1.0     0.364604     0.217310     0.732062  Biso 1.000000     H
    H   1.0     0.363007     0.717403     0.731779  Biso 1.000000     H
    H   1.0     0.864617     0.217310     0.732062  Biso 1.000000     H
    H   1.0     0.863020     0.717403     0.731779  Biso 1.000000     H
    H   1.0     0.316307     0.179605     0.809910  Biso 1.000000     H
    H   1.0     0.315510     0.679605     0.810296  Biso 1.000000     H
    H   1.0     0.816319     0.179605     0.809910  Biso 1.000000     H
    H   1.0     0.815522     0.679605     0.810296  Biso 1.000000     H
    H   1.0     0.329588     0.059424     0.808230  Biso 1.000000     H
    H   1.0     0.329625     0.559250     0.808493  Biso 1.000000     H
    H   1.0     0.829601     0.059424     0.808230  Biso 1.000000     H
    H   1.0     0.829638     0.559250     0.808494  Biso 1.000000     H
    H   1.0     0.418584     0.061001     0.810020  Biso 1.000000     H
    H   1.0     0.418615     0.561412     0.808826  Biso 1.000000     H
    H   1.0     0.918597     0.061001     0.810020  Biso 1.000000     H
    H   1.0     0.918628     0.561412     0.808825  Biso 1.000000     H
    H   1.0     0.331639     0.111132     0.671352  Biso 1.000000     H
    H   1.0     0.329539     0.610998     0.671585  Biso 1.000000     H
    H   1.0     0.831651     0.111132     0.671352  Biso 1.000000     H
    H   1.0     0.829552     0.610998     0.671585  Biso 1.000000     H
    H   1.0     0.427015     0.114039     0.684127  Biso 1.000000     H
    H   1.0     0.424975     0.614378     0.682666  Biso 1.000000     H
    H   1.0     0.927027     0.114039     0.684127  Biso 1.000000     H
    H   1.0     0.924988     0.614378     0.682666  Biso 1.000000     H
    H   1.0     0.377924     0.140287     0.373639  Biso 1.000000     H
    H   1.0     0.378355     0.640563     0.373928  Biso 1.000000     H
    H   1.0     0.877936     0.140287     0.373639  Biso 1.000000     H
    H   1.0     0.878367     0.640563     0.373928  Biso 1.000000     H
    H   1.0     0.368884     0.253008     0.909240  Biso 1.000000     H
    H   1.0     0.368691     0.752067     0.909746  Biso 1.000000     H
    H   1.0     0.868897     0.253008     0.909240  Biso 1.000000     H
    H   1.0     0.868703     0.752067     0.909746  Biso 1.000000     H
    H   1.0     0.043491     0.475354     0.451039  Biso 1.000000     H
    H   1.0     0.043653     0.975713     0.451273  Biso 1.000000     H
    H   1.0     0.543504     0.475354     0.451039  Biso 1.000000     H
    H   1.0     0.543665     0.975713     0.451273  Biso 1.000000     H
    H   1.0     0.385857     0.481754     0.408596  Biso 1.000000     H
    H   1.0     0.386127     0.981602     0.408352  Biso 1.000000     H
    H   1.0     0.885870     0.481754     0.408596  Biso 1.000000     H
    H   1.0     0.886140     0.981602     0.408352  Biso 1.000000     H
    H   1.0     0.433376     0.329729     0.237109  Biso 1.000000     H
    H   1.0     0.433329     0.830051     0.238567  Biso 1.000000     H
    H   1.0     0.933388     0.329729     0.237109  Biso 1.000000     H
    H   1.0     0.933341     0.830051     0.238567  Biso 1.000000     H
    H   1.0     0.447236     0.281117     0.323197  Biso 1.000000     H
    H   1.0     0.447599     0.780866     0.324006  Biso 1.000000     H
    H   1.0     0.947249     0.281117     0.323197  Biso 1.000000     H
    H   1.0     0.947612     0.780866     0.324006  Biso 1.000000     H
    H   1.0     0.034793     0.115584     0.179434  Biso 1.000000     H
    H   1.0     0.034320     0.614690     0.178865  Biso 1.000000     H
    H   1.0     0.534806     0.115584     0.179434  Biso 1.000000     H
    H   1.0     0.534333     0.614690     0.178865  Biso 1.000000     H
    H   1.0     0.343923     0.396652     0.324734  Biso 1.000000     H
    H   1.0     0.343544     0.895945     0.327106  Biso 1.000000     H
    H   1.0     0.843936     0.396652     0.324734  Biso 1.000000     H
    H   1.0     0.843557     0.895945     0.327106  Biso 1.000000     H
    H   1.0     0.346912     0.341619     0.405191  Biso 1.000000     H
    H   1.0     0.347416     0.840506     0.407075  Biso 1.000000     H
    H   1.0     0.846925     0.341619     0.405191  Biso 1.000000     H
    H   1.0     0.847429     0.840506     0.407074  Biso 1.000000     H
    H   1.0     0.443527     0.089043     0.496208  Biso 1.000000     H
    H   1.0     0.444215     0.589187     0.496365  Biso 1.000000     H
    H   1.0     0.943540     0.089043     0.496208  Biso 1.000000     H
    H   1.0     0.944228     0.589187     0.496365  Biso 1.000000     H
    H   1.0     0.039314     0.086628     0.489880  Biso 1.000000     H
    H   1.0     0.039961     0.586256     0.489470  Biso 1.000000     H
    H   1.0     0.539327     0.086628     0.489880  Biso 1.000000     H
    H   1.0     0.539974     0.586256     0.489470  Biso 1.000000     H
    C   1.0     0.259224     0.102144     0.229036  Biso 1.000000     C
    C   1.0     0.259310     0.602104     0.229502  Biso 1.000000     C
    C   1.0     0.759236     0.102144     0.229036  Biso 1.000000     C
    C   1.0     0.759323     0.602104     0.229502  Biso 1.000000     C
    C   1.0     0.173546     0.101863     0.134075  Biso 1.000000     C
    C   1.0     0.173472     0.602022     0.134746  Biso 1.000000     C
    C   1.0     0.673559     0.101863     0.134075  Biso 1.000000     C
    C   1.0     0.673485     0.602022     0.134746  Biso 1.000000     C
    C   1.0     0.229590     0.138280     0.106085  Biso 1.000000     C
    C   1.0     0.229356     0.638666     0.106930  Biso 1.000000     C
    C   1.0     0.729602     0.138280     0.106085  Biso 1.000000     C
    C   1.0     0.729368     0.638666     0.106930  Biso 1.000000     C
    C   1.0     0.218556     0.274025     0.952625  Biso 1.000000     C
    C   1.0     0.218418     0.774479     0.953994  Biso 1.000000     C
    C   1.0     0.718569     0.274025     0.952625  Biso 1.000000     C
    C   1.0     0.718431     0.774479     0.953994  Biso 1.000000     C
    C   1.0     0.227648     0.246897     0.040671  Biso 1.000000     C
    C   1.0     0.226922     0.747541     0.042214  Biso 1.000000     C
    C   1.0     0.727660     0.246897     0.040671  Biso 1.000000     C
    C   1.0     0.726935     0.747541     0.042214  Biso 1.000000     C
    C   1.0     0.232710     0.173034     0.026291  Biso 1.000000     C
    C   1.0     0.232231     0.673720     0.027451  Biso 1.000000     C
    C   1.0     0.732723     0.173034     0.026291  Biso 1.000000     C
    C   1.0     0.732244     0.673720     0.027451  Biso 1.000000     C
    C   1.0     0.117103     0.324088     0.225924  Biso 1.000000     C
    C   1.0     0.115034     0.824434     0.226674  Biso 1.000000     C
    C   1.0     0.617115     0.324088     0.225924  Biso 1.000000     C
    C   1.0     0.615046     0.824434     0.226673  Biso 1.000000     C
    C   1.0     0.125213     0.385932     0.282024  Biso 1.000000     C
    C   1.0     0.123204     0.886321     0.282689  Biso 1.000000     C
    C   1.0     0.625225     0.385932     0.282024  Biso 1.000000     C
    C   1.0     0.623217     0.886321     0.282689  Biso 1.000000     C
    C   1.0     0.234050     0.411960     0.630862  Biso 1.000000     C
    C   1.0     0.234149     0.911971     0.630964  Biso 1.000000     C
    C   1.0     0.734063     0.411960     0.630862  Biso 1.000000     C
    C   1.0     0.734162     0.911971     0.630964  Biso 1.000000     C
    C   1.0     0.178355     0.376018     0.660612  Biso 1.000000     C
    C   1.0     0.178530     0.875917     0.660671  Biso 1.000000     C
    C   1.0     0.678367     0.376018     0.660612  Biso 1.000000     C
    C   1.0     0.678542     0.875916     0.660671  Biso 1.000000     C
    C   1.0     0.231405     0.014276     0.434896  Biso 1.000000     C
    C   1.0     0.231498     0.514182     0.434758  Biso 1.000000     C
    C   1.0     0.731417     0.014276     0.434896  Biso 1.000000     C
    C   1.0     0.731511     0.514182     0.434758  Biso 1.000000     C
    C   1.0     0.241142     0.005171     0.531248  Biso 1.000000     C
    C   1.0     0.241315     0.505071     0.531072  Biso 1.000000     C
    C   1.0     0.741154     0.005171     0.531248  Biso 1.000000     C
    C   1.0     0.741328     0.505071     0.531072  Biso 1.000000     C
    C   1.0     0.180904     0.310984     0.165369  Biso 1.000000     C
    C   1.0     0.179448     0.811001     0.167154  Biso 1.000000     C
    C   1.0     0.680916     0.310984     0.165369  Biso 1.000000     C
    C   1.0     0.679460     0.811001     0.167153  Biso 1.000000     C
    C   1.0     0.156790     0.190688     0.708197  Biso 1.000000     C
    C   1.0     0.157232     0.690727     0.707014  Biso 1.000000     C
    C   1.0     0.656803     0.190688     0.708197  Biso 1.000000     C
    C   1.0     0.657245     0.690727     0.707013  Biso 1.000000     C
    C   1.0     0.256791     0.390890     0.763020  Biso 1.000000     C
    C   1.0     0.256850     0.890992     0.763166  Biso 1.000000     C
    C   1.0     0.756804     0.390890     0.763020  Biso 1.000000     C
    C   1.0     0.756863     0.890992     0.763166  Biso 1.000000     C
    C   1.0     0.129680     0.137180     0.645186  Biso 1.000000     C
    C   1.0     0.129901     0.637764     0.643269  Biso 1.000000     C
    C   1.0     0.629693     0.137180     0.645186  Biso 1.000000     C
    C   1.0     0.629913     0.637764     0.643269  Biso 1.000000     C
    C   1.0     0.241306     0.432587     0.541999  Biso 1.000000     C
    C   1.0     0.241411     0.932640     0.542119  Biso 1.000000     C
    C   1.0     0.741319     0.432587     0.541999  Biso 1.000000     C
    C   1.0     0.741424     0.932639     0.542119  Biso 1.000000     C
    C   1.0     0.192961     0.103120     0.599210  Biso 1.000000     C
    C   1.0     0.192988     0.603412     0.597310  Biso 1.000000     C
    C   1.0     0.692973     0.103120     0.599210  Biso 1.000000     C
    C   1.0     0.693000     0.603412     0.597310  Biso 1.000000     C
    C   1.0     0.009322     0.399081     0.772584  Biso 1.000000     C
    C   1.0     0.009352     0.898646     0.772230  Biso 1.000000     C
    C   1.0     0.509335     0.399081     0.772584  Biso 1.000000     C
    C   1.0     0.509365     0.898646     0.772230  Biso 1.000000     C
    C   1.0     0.423953     0.399464     0.868095  Biso 1.000000     C
    C   1.0     0.423955     0.898735     0.867682  Biso 1.000000     C
    C   1.0     0.923966     0.399464     0.868095  Biso 1.000000     C
    C   1.0     0.923967     0.898735     0.867682  Biso 1.000000     C
    C   1.0     0.479855     0.362414     0.895286  Biso 1.000000     C
    C   1.0     0.479880     0.861656     0.894733  Biso 1.000000     C
    C   1.0     0.979868     0.362414     0.895286  Biso 1.000000     C
    C   1.0     0.979892     0.861656     0.894733  Biso 1.000000     C
    C   1.0     0.468637     0.226018     0.047688  Biso 1.000000     C
    C   1.0     0.468515     0.725619     0.047451  Biso 1.000000     C
    C   1.0     0.968650     0.226018     0.047688  Biso 1.000000     C
    C   1.0     0.968528     0.725619     0.047451  Biso 1.000000     C
    C   1.0     0.477885     0.253439     0.959859  Biso 1.000000     C
    C   1.0     0.477846     0.752578     0.959327  Biso 1.000000     C
    C   1.0     0.977897     0.253439     0.959859  Biso 1.000000     C
    C   1.0     0.977859     0.752578     0.959327  Biso 1.000000     C
    C   1.0     0.483026     0.327252     0.974734  Biso 1.000000     C
    C   1.0     0.483163     0.826423     0.974087  Biso 1.000000     C
    C   1.0     0.983039     0.327252     0.974734  Biso 1.000000     C
    C   1.0     0.983175     0.826423     0.974087  Biso 1.000000     C
    C   1.0     0.367656     0.177406     0.774047  Biso 1.000000     C
    C   1.0     0.366480     0.677478     0.773687  Biso 1.000000     C
    C   1.0     0.867669     0.177406     0.774047  Biso 1.000000     C
    C   1.0     0.866493     0.677478     0.773687  Biso 1.000000     C
    C   1.0     0.375321     0.115125     0.718787  Biso 1.000000     C
    C   1.0     0.373762     0.615212     0.718284  Biso 1.000000     C
    C   1.0     0.875334     0.115125     0.718787  Biso 1.000000     C
    C   1.0     0.873774     0.615212     0.718285  Biso 1.000000     C
    C   1.0     0.482814     0.088566     0.370843  Biso 1.000000     C
    C   1.0     0.482995     0.588439     0.370762  Biso 1.000000     C
    C   1.0     0.982827     0.088566     0.370843  Biso 1.000000     C
    C   1.0     0.983008     0.588439     0.370762  Biso 1.000000     C
    C   1.0     0.426976     0.124176     0.340524  Biso 1.000000     C
    C   1.0     0.427216     0.624202     0.340608  Biso 1.000000     C
    C   1.0     0.926988     0.124176     0.340524  Biso 1.000000     C
    C   1.0     0.927229     0.624202     0.340608  Biso 1.000000     C
    C   1.0     0.481184     0.485792     0.566461  Biso 1.000000     C
    C   1.0     0.481199     0.985848     0.566587  Biso 1.000000     C
    C   1.0     0.981197     0.485792     0.566461  Biso 1.000000     C
    C   1.0     0.981212     0.985848     0.566587  Biso 1.000000     C
    C   1.0    -0.009737     0.494873     0.469989  Biso 1.000000     C
    C   1.0    -0.009708     0.994984     0.470134  Biso 1.000000     C
    C   1.0     0.490276     0.494873     0.469989  Biso 1.000000     C
    C   1.0     0.490305     0.994984     0.470134  Biso 1.000000     C
    C   1.0     0.431276     0.189954     0.834830  Biso 1.000000     C
    C   1.0     0.430764     0.689913     0.833527  Biso 1.000000     C
    C   1.0     0.931288     0.189954     0.834830  Biso 1.000000     C
    C   1.0     0.930777     0.689913     0.833527  Biso 1.000000     C
    C   1.0     0.406645     0.309745     0.291949  Biso 1.000000     C
    C   1.0     0.406826     0.809598     0.293210  Biso 1.000000     C
    C   1.0     0.906657     0.309745     0.291949  Biso 1.000000     C
    C   1.0     0.906839     0.809598     0.293209  Biso 1.000000     C
    C   1.0     0.006874     0.110575     0.239326  Biso 1.000000     C
    C   1.0     0.006643     0.610006     0.238982  Biso 1.000000     C
    C   1.0     0.506886     0.110575     0.239326  Biso 1.000000     C
    C   1.0     0.506656     0.610006     0.238982  Biso 1.000000     C
    C   1.0     0.379439     0.363025     0.355431  Biso 1.000000     C
    C   1.0     0.379490     0.862414     0.357356  Biso 1.000000     C
    C   1.0     0.879452     0.363025     0.355431  Biso 1.000000     C
    C   1.0     0.879502     0.862414     0.357356  Biso 1.000000     C
    C   1.0     0.489453     0.067554     0.459582  Biso 1.000000     C
    C   1.0     0.489860     0.567449     0.459479  Biso 1.000000     C
    C   1.0     0.989465     0.067554     0.459582  Biso 1.000000     C
    C   1.0     0.989872     0.567449     0.459479  Biso 1.000000     C
    C   1.0     0.442608     0.396956     0.401497  Biso 1.000000     C
    C   1.0     0.442502     0.896623     0.403388  Biso 1.000000     C
    C   1.0     0.942621     0.396956     0.401497  Biso 1.000000     C
    C   1.0     0.942514     0.896623     0.403388  Biso 1.000000     C
    N   1.0     0.098114     0.233399     0.742602  Biso 1.000000     N
    N   1.0     0.098718     0.733510     0.741676  Biso 1.000000     N
    N   1.0     0.598127     0.233399     0.742602  Biso 1.000000     N
    N   1.0     0.598731     0.733510     0.741676  Biso 1.000000     N
    N   1.0     0.192893     0.362590     0.744115  Biso 1.000000     N
    N   1.0     0.193049     0.862548     0.744208  Biso 1.000000     N
    N   1.0     0.692905     0.362590     0.744115  Biso 1.000000     N
    N   1.0     0.693062     0.862548     0.744208  Biso 1.000000     N
    N   1.0     0.192215     0.079259     0.212061  Biso 1.000000     N
    N   1.0     0.192336     0.579155     0.212486  Biso 1.000000     N
    N   1.0     0.692227     0.079259     0.212061  Biso 1.000000     N
    N   1.0     0.692349     0.579155     0.212486  Biso 1.000000     N
    N   1.0     0.284111     0.138200     0.167275  Biso 1.000000     N
    N   1.0     0.283989     0.638453     0.167950  Biso 1.000000     N
    N   1.0     0.784124     0.138200     0.167275  Biso 1.000000     N
    N   1.0     0.784002     0.638453     0.167950  Biso 1.000000     N
    N   1.0     0.124799     0.443867     0.232372  Biso 1.000000     N
    N   1.0     0.124436     0.944087     0.232740  Biso 1.000000     N
    N   1.0     0.624812     0.443866     0.232372  Biso 1.000000     N
    N   1.0     0.624448     0.944087     0.232740  Biso 1.000000     N
    N   1.0     0.284133     0.421669     0.697097  Biso 1.000000     N
    N   1.0     0.284156     0.921802     0.697253  Biso 1.000000     N
    N   1.0     0.784146     0.421669     0.697097  Biso 1.000000     N
    N   1.0     0.784169     0.921802     0.697253  Biso 1.000000     N
    N   1.0     0.170197     0.266540     0.100424  Biso 1.000000     N
    N   1.0     0.169102     0.767059     0.101507  Biso 1.000000     N
    N   1.0     0.670209     0.266540     0.100424  Biso 1.000000     N
    N   1.0     0.669115     0.767059     0.101507  Biso 1.000000     N
    N   1.0     0.186743     0.038922     0.584299  Biso 1.000000     N
    N   1.0     0.187070     0.539052     0.584098  Biso 1.000000     N
    N   1.0     0.686756     0.038922     0.584299  Biso 1.000000     N
    N   1.0     0.687082     0.539052     0.584098  Biso 1.000000     N
    N   1.0     0.348039     0.267219     0.257414  Biso 1.000000     N
    N   1.0     0.348325     0.767059     0.258372  Biso 1.000000     N
    N   1.0     0.848052     0.267219     0.257414  Biso 1.000000     N
    N   1.0     0.848338     0.767059     0.258371  Biso 1.000000     N
    N   1.0     0.442345     0.138153     0.257404  Biso 1.000000     N
    N   1.0     0.442337     0.637906     0.257313  Biso 1.000000     N
    N   1.0     0.942358     0.138153     0.257404  Biso 1.000000     N
    N   1.0     0.942349     0.637906     0.257313  Biso 1.000000     N
    N   1.0     0.442528     0.422431     0.790300  Biso 1.000000     N
    N   1.0     0.442534     0.921906     0.790018  Biso 1.000000     N
    N   1.0     0.942541     0.422431     0.790300  Biso 1.000000     N
    N   1.0     0.942547     0.921906     0.790018  Biso 1.000000     N
    N   1.0     0.034169     0.362426     0.833740  Biso 1.000000     N
    N   1.0     0.034205     0.861864     0.833243  Biso 1.000000     N
    N   1.0     0.534181     0.362426     0.833740  Biso 1.000000     N
    N   1.0     0.534217     0.861864     0.833243  Biso 1.000000     N
    N   1.0     0.374621     0.057768     0.769575  Biso 1.000000     N
    N   1.0     0.374194     0.557878     0.769105  Biso 1.000000     N
    N   1.0     0.874634     0.057768     0.769575  Biso 1.000000     N
    N   1.0     0.874206     0.557878     0.769105  Biso 1.000000     N
    N   1.0     0.033832     0.079714     0.305388  Biso 1.000000     N
    N   1.0     0.033711     0.579217     0.305047  Biso 1.000000     N
    N   1.0     0.533844     0.079714     0.305388  Biso 1.000000     N
    N   1.0     0.533723     0.579217     0.305047  Biso 1.000000     N
    N   1.0     0.420516     0.234229     0.899990  Biso 1.000000     N
    N   1.0     0.420281     0.733388     0.899713  Biso 1.000000     N
    N   1.0     0.920528     0.234229     0.899990  Biso 1.000000     N
    N   1.0     0.920294     0.733388     0.899713  Biso 1.000000     N
    N   1.0     0.435916     0.461070     0.417244  Biso 1.000000     N
    N   1.0     0.436111     0.960914     0.417425  Biso 1.000000     N
    N   1.0     0.935929     0.461070     0.417244  Biso 1.000000     N
    N   1.0     0.936124     0.960914     0.417425  Biso 1.000000     N
    O   1.0     0.152890     0.288831     0.933405  Biso 1.000000     O
    O   1.0     0.152875     0.788836     0.933620  Biso 1.000000     O
    O   1.0     0.652902     0.288831     0.933405  Biso 1.000000     O
    O   1.0     0.652888     0.788836     0.933620  Biso 1.000000     O
    O   1.0     0.272235     0.277587     0.904440  Biso 1.000000     O
    O   1.0     0.272634     0.778062     0.906707  Biso 1.000000     O
    O   1.0     0.772248     0.277587     0.904440  Biso 1.000000     O
    O   1.0     0.772646     0.778062     0.906707  Biso 1.000000     O
    O   1.0     0.165693     0.027777     0.413247  Biso 1.000000     O
    O   1.0     0.165757     0.527625     0.413173  Biso 1.000000     O
    O   1.0     0.665705     0.027777     0.413247  Biso 1.000000     O
    O   1.0     0.665769     0.527625     0.413173  Biso 1.000000     O
    O   1.0     0.239950     0.339663     0.178274  Biso 1.000000     O
    O   1.0     0.238528     0.839294     0.181470  Biso 1.000000     O
    O   1.0     0.739962     0.339663     0.178274  Biso 1.000000     O
    O   1.0     0.738540     0.839294     0.181470  Biso 1.000000     O
    O   1.0     0.284059     0.005667     0.385282  Biso 1.000000     O
    O   1.0     0.284138     0.505604     0.385124  Biso 1.000000     O
    O   1.0     0.784072     0.005667     0.385282  Biso 1.000000     O
    O   1.0     0.784150     0.505604     0.385124  Biso 1.000000     O
    O   1.0     0.247121     0.133387     0.577772  Biso 1.000000     O
    O   1.0     0.246837     0.633480     0.574490  Biso 1.000000     O
    O   1.0     0.747134     0.133387     0.577772  Biso 1.000000     O
    O   1.0     0.746849     0.633480     0.574490  Biso 1.000000     O
    O   1.0     0.402979     0.211091     0.066688  Biso 1.000000     O
    O   1.0     0.402828     0.710977     0.066676  Biso 1.000000     O
    O   1.0     0.902991     0.211091     0.066688  Biso 1.000000     O
    O   1.0     0.902841     0.710977     0.066676  Biso 1.000000     O
    O   1.0     0.022195     0.222358     0.095940  Biso 1.000000     O
    O   1.0     0.022042     0.722193     0.095811  Biso 1.000000     O
    O   1.0     0.522208     0.222358     0.095940  Biso 1.000000     O
    O   1.0     0.522055     0.722193     0.095811  Biso 1.000000     O
    O   1.0     0.415669     0.472492     0.589059  Biso 1.000000     O
    O   1.0     0.415680     0.972560     0.589155  Biso 1.000000     O
    O   1.0     0.915681     0.472492     0.589059  Biso 1.000000     O
    O   1.0     0.915692     0.972560     0.589155  Biso 1.000000     O
    O   1.0    -0.009759     0.160949     0.821882  Biso 1.000000     O
    O   1.0    -0.010236     0.661319     0.818907  Biso 1.000000     O
    O   1.0     0.490254     0.160949     0.821882  Biso 1.000000     O
    O   1.0     0.489777     0.661319     0.818907  Biso 1.000000     O
    O   1.0     0.034249     0.494369     0.615267  Biso 1.000000     O
    O   1.0     0.034261     0.994382     0.615406  Biso 1.000000     O
    O   1.0     0.534261     0.494369     0.615267  Biso 1.000000     O
    O   1.0     0.534274     0.994382     0.615406  Biso 1.000000     O
    O   1.0    -0.002990     0.366655     0.422317  Biso 1.000000     O
    O   1.0    -0.003400     0.866521     0.425591  Biso 1.000000     O
    O   1.0     0.497023     0.366655     0.422317  Biso 1.000000     O
    O   1.0     0.496613     0.866521     0.425591  Biso 1.000000     O
   Zn   1.0     0.131184     0.035909     0.296450  Biso 1.000000    Zn
   Zn   1.0     0.131193     0.535685     0.296443  Biso 1.000000    Zn
   Zn   1.0     0.631197     0.035909     0.296450  Biso 1.000000    Zn
   Zn   1.0     0.631206     0.535685     0.296443  Biso 1.000000    Zn
   Zn   1.0     0.378303     0.185852     0.181843  Biso 1.000000    Zn
   Zn   1.0     0.378324     0.685900     0.181998  Biso 1.000000    Zn
   Zn   1.0     0.878316     0.185852     0.181843  Biso 1.000000    Zn
   Zn   1.0     0.878337     0.685900     0.181998  Biso 1.000000    Zn
   Zn   1.0     0.381158     0.466107     0.706468  Biso 1.000000    Zn
   Zn   1.0     0.381241     0.966089     0.706596  Biso 1.000000    Zn
   Zn   1.0     0.881171     0.466107     0.706468  Biso 1.000000    Zn
   Zn   1.0     0.881254     0.966089     0.706596  Biso 1.000000    Zn
   Zn   1.0     0.128325     0.314425     0.818395  Biso 1.000000    Zn
   Zn   1.0     0.128530     0.814231     0.818396  Biso 1.000000    Zn
   Zn   1.0     0.628338     0.314425     0.818395  Biso 1.000000    Zn
   Zn   1.0     0.628543     0.814231     0.818396  Biso 1.000000    Zn
