#======================================================================

# CRYSTAL DATA

#----------------------------------------------------------------------

data_VESTA_phase_1


_pd_phase_name                         MOF
_cell_length_a                         18.74300
_cell_length_b                         18.76500
_cell_length_c                         18.76200
_cell_angle_alpha                      59.98000
_cell_angle_beta                       60.08300
_cell_angle_gamma                      60.10900
_symmetry_space_group_name_H-M         "P 1"
_symmetry_Int_Tables_number            1

loop_
_symmetry_equiv_pos_as_xyz
   "x, y, z"

loop_
   _atom_site_label
   _atom_site_occupancy
   _atom_site_fract_x
   _atom_site_fract_y
   _atom_site_fract_z
   _atom_site_adp_type
   _atom_site_B_iso_or_equiv
   _atom_site_type_symbol
    H   1.0     0.734134     0.734163     0.504242  Biso 1.000000     H
    H   1.0     0.734064     0.734487     0.027370  Biso 1.000000     H
    H   1.0     0.504265     0.027895     0.734003  Biso 1.000000     H
    H   1.0     0.027289     0.504629     0.734019  Biso 1.000000     H
    H   1.0     0.734049     0.505152     0.027005  Biso 1.000000     H
    H   1.0     0.734177     0.026584     0.505182  Biso 1.000000     H
    H   1.0     0.504760     0.733824     0.733655  Biso 1.000000     H
    H   1.0     0.028097     0.733942     0.733648  Biso 1.000000     H
    H   1.0     0.734049     0.027710     0.734232  Biso 1.000000     H
    H   1.0     0.734257     0.504742     0.734051  Biso 1.000000     H
    H   1.0     0.504338     0.733979     0.027715  Biso 1.000000     H
    H   1.0     0.028018     0.733945     0.504128  Biso 1.000000     H
    H   1.0     0.265827     0.265830     0.495772  Biso 1.000000     H
    H   1.0     0.265807     0.265538     0.972676  Biso 1.000000     H
    H   1.0     0.972646     0.495350     0.266055  Biso 1.000000     H
    H   1.0     0.495719     0.972071     0.265979  Biso 1.000000     H
    H   1.0     0.495633     0.265874     0.972299  Biso 1.000000     H
    H   1.0     0.971940     0.265990     0.495901  Biso 1.000000     H
    H   1.0     0.265742     0.495204     0.265914  Biso 1.000000     H
    H   1.0     0.265919     0.972219     0.265823  Biso 1.000000     H
    H   1.0     0.971869     0.266065     0.266340  Biso 1.000000     H
    H   1.0     0.495230     0.266113     0.266391  Biso 1.000000     H
    H   1.0     0.266005     0.494784     0.973038  Biso 1.000000     H
    H   1.0     0.265833     0.973392     0.494826  Biso 1.000000     H
    C   1.0     0.256691     0.971502     0.385575  Biso 1.000000     C
    C   1.0     0.970670     0.256844     0.386324  Biso 1.000000     C
    C   1.0     0.385733     0.385918     0.256915  Biso 1.000000     C
    C   1.0     0.386069     0.385604     0.971327  Biso 1.000000     C
    C   1.0     0.256608     0.385792     0.386103  Biso 1.000000     C
    C   1.0     0.970887     0.385957     0.386245  Biso 1.000000     C
    C   1.0     0.385920     0.256519     0.971272  Biso 1.000000     C
    C   1.0     0.386037     0.970908     0.256702  Biso 1.000000     C
    C   1.0     0.256702     0.385432     0.971529  Biso 1.000000     C
    C   1.0     0.970944     0.385983     0.256973  Biso 1.000000     C
    C   1.0     0.386037     0.971371     0.385679  Biso 1.000000     C
    C   1.0     0.385749     0.256766     0.386298  Biso 1.000000     C
    C   1.0     0.029296     0.743126     0.613682  Biso 1.000000     C
    C   1.0     0.743301     0.028449     0.614455  Biso 1.000000     C
    C   1.0     0.614256     0.614029     0.743089  Biso 1.000000     C
    C   1.0     0.613940     0.614298     0.028704  Biso 1.000000     C
    C   1.0     0.614222     0.743203     0.613729  Biso 1.000000     C
    C   1.0     0.613962     0.028602     0.614319  Biso 1.000000     C
    C   1.0     0.743261     0.614553     0.028514  Biso 1.000000     C
    C   1.0     0.029006     0.614014     0.743059  Biso 1.000000     C
    C   1.0     0.614000     0.743424     0.028761  Biso 1.000000     C
    C   1.0     0.613941     0.029042     0.743314  Biso 1.000000     C
    C   1.0     0.029057     0.614000     0.613808  Biso 1.000000     C
    C   1.0     0.743368     0.614181     0.613888  Biso 1.000000     C
    C   1.0     0.570015     0.569768     0.836725  Biso 1.000000     C
    C   1.0     0.569676     0.569984     0.023615  Biso 1.000000     C
    C   1.0     0.836951     0.023115     0.570300  Biso 1.000000     C
    C   1.0     0.024044     0.836744     0.569464  Biso 1.000000     C
    C   1.0     0.569789     0.836929     0.023584  Biso 1.000000     C
    C   1.0     0.569723     0.023923     0.836835  Biso 1.000000     C
    C   1.0     0.836882     0.569960     0.569680  Biso 1.000000     C
    C   1.0     0.023885     0.569762     0.569605  Biso 1.000000     C
    C   1.0     0.569727     0.023395     0.570081  Biso 1.000000     C
    C   1.0     0.569984     0.836770     0.569483  Biso 1.000000     C
    C   1.0     0.836871     0.570370     0.023341  Biso 1.000000     C
    C   1.0     0.023722     0.569814     0.836729  Biso 1.000000     C
    C   1.0     0.429962     0.430184     0.163277  Biso 1.000000     C
    C   1.0     0.430347     0.429912     0.976403  Biso 1.000000     C
    C   1.0     0.975946     0.163219     0.430522  Biso 1.000000     C
    C   1.0     0.163042     0.976837     0.429735  Biso 1.000000     C
    C   1.0     0.163094     0.429662     0.976695  Biso 1.000000     C
    C   1.0     0.976236     0.430203     0.163300  Biso 1.000000     C
    C   1.0     0.429978     0.163203     0.430561  Biso 1.000000     C
    C   1.0     0.430275     0.976585     0.429909  Biso 1.000000     C
    C   1.0     0.976078     0.430178     0.430451  Biso 1.000000     C
    C   1.0     0.163096     0.430024     0.430301  Biso 1.000000     C
    C   1.0     0.430112     0.163016     0.976439  Biso 1.000000     C
    C   1.0     0.430247     0.976024     0.163181  Biso 1.000000     C
    C   1.0     0.299820     0.971615     0.428571  Biso 1.000000     C
    C   1.0     0.970626     0.299953     0.300188  Biso 1.000000     C
    C   1.0     0.428786     0.299926     0.300179  Biso 1.000000     C
    C   1.0     0.299903     0.428483     0.971471  Biso 1.000000     C
    C   1.0     0.299666     0.428844     0.299933  Biso 1.000000     C
    C   1.0     0.970644     0.299906     0.429397  Biso 1.000000     C
    C   1.0     0.429112     0.299661     0.971103  Biso 1.000000     C
    C   1.0     0.299851     0.971008     0.299683  Biso 1.000000     C
    C   1.0     0.299767     0.299475     0.971314  Biso 1.000000     C
    C   1.0     0.971010     0.428978     0.300053  Biso 1.000000     C
    C   1.0     0.429169     0.970912     0.299781  Biso 1.000000     C
    C   1.0     0.299698     0.299764     0.429282  Biso 1.000000     C
    C   1.0     0.029306     0.700049     0.570635  Biso 1.000000     C
    C   1.0     0.700131     0.028932     0.700351  Biso 1.000000     C
    C   1.0     0.700321     0.571110     0.700056  Biso 1.000000     C
    C   1.0     0.570856     0.700243     0.028921  Biso 1.000000     C
    C   1.0     0.571200     0.700028     0.699845  Biso 1.000000     C
    C   1.0     0.700179     0.028352     0.571441  Biso 1.000000     C
    C   1.0     0.700107     0.571457     0.028564  Biso 1.000000     C
    C   1.0     0.029328     0.700040     0.699822  Biso 1.000000     C
    C   1.0     0.700150     0.700508     0.028727  Biso 1.000000     C
    C   1.0     0.570817     0.029050     0.700220  Biso 1.000000     C
    C   1.0     0.028924     0.571002     0.700004  Biso 1.000000     C
    C   1.0     0.700272     0.700216     0.570730  Biso 1.000000     C
    O   1.0     0.613937     0.492317     0.873355  Biso 1.000000     O
    O   1.0     0.492152     0.613822     0.020630  Biso 1.000000     O
    O   1.0     0.873625     0.020109     0.614221  Biso 1.000000     O
    O   1.0     0.020827     0.873315     0.492010  Biso 1.000000     O
    O   1.0     0.613780     0.873494     0.020662  Biso 1.000000     O
    O   1.0     0.492202     0.020866     0.873252  Biso 1.000000     O
    O   1.0     0.873398     0.613903     0.492101  Biso 1.000000     O
    O   1.0     0.020853     0.492246     0.613666  Biso 1.000000     O
    O   1.0     0.613694     0.020561     0.492579  Biso 1.000000     O
    O   1.0     0.492503     0.873086     0.613451  Biso 1.000000     O
    O   1.0     0.873137     0.492907     0.020465  Biso 1.000000     O
    O   1.0     0.020922     0.613731     0.873185  Biso 1.000000     O
    O   1.0     0.507458     0.386317     0.126885  Biso 1.000000     O
    O   1.0     0.386412     0.507390     0.979219  Biso 1.000000     O
    O   1.0     0.978811     0.126777     0.386551  Biso 1.000000     O
    O   1.0     0.126736     0.979780     0.507201  Biso 1.000000     O
    O   1.0     0.126374     0.385808     0.979654  Biso 1.000000     O
    O   1.0     0.979462     0.507647     0.126727  Biso 1.000000     O
    O   1.0     0.386036     0.126560     0.508053  Biso 1.000000     O
    O   1.0     0.507793     0.979634     0.385981  Biso 1.000000     O
    O   1.0     0.978996     0.386216     0.508021  Biso 1.000000     O
    O   1.0     0.126687     0.507544     0.386255  Biso 1.000000     O
    O   1.0     0.507640     0.126662     0.979424  Biso 1.000000     O
    O   1.0     0.386241     0.978913     0.126660  Biso 1.000000     O
    O   1.0     0.386029     0.507632     0.126648  Biso 1.000000     O
    O   1.0     0.507866     0.386077     0.979394  Biso 1.000000     O
    O   1.0     0.126366     0.979858     0.385807  Biso 1.000000     O
    O   1.0     0.979179     0.126640     0.507970  Biso 1.000000     O
    O   1.0     0.386101     0.126452     0.979394  Biso 1.000000     O
    O   1.0     0.507756     0.979114     0.126751  Biso 1.000000     O
    O   1.0     0.126582     0.386094     0.507890  Biso 1.000000     O
    O   1.0     0.979096     0.507700     0.386394  Biso 1.000000     O
    O   1.0     0.386304     0.979437     0.507405  Biso 1.000000     O
    O   1.0     0.507457     0.126882     0.386593  Biso 1.000000     O
    O   1.0     0.126852     0.507130     0.979556  Biso 1.000000     O
    O   1.0     0.979018     0.386304     0.126837  Biso 1.000000     O
    O   1.0     0.492524     0.613647     0.873115  Biso 1.000000     O
    O   1.0     0.613621     0.492521     0.020767  Biso 1.000000     O
    O   1.0     0.021170     0.873189     0.613438  Biso 1.000000     O
    O   1.0     0.873262     0.020160     0.492839  Biso 1.000000     O
    O   1.0     0.873573     0.614239     0.020384  Biso 1.000000     O
    O   1.0     0.020513     0.492364     0.873306  Biso 1.000000     O
    O   1.0     0.613928     0.873424     0.491997  Biso 1.000000     O
    O   1.0     0.492215     0.020330     0.614016  Biso 1.000000     O
    O   1.0     0.020989     0.613713     0.492026  Biso 1.000000     O
    O   1.0     0.873291     0.492436     0.613721  Biso 1.000000     O
    O   1.0     0.492277     0.873288     0.020559  Biso 1.000000     O
    O   1.0     0.613735     0.020997     0.873373  Biso 1.000000     O
   Cu   1.0     0.565372     0.000174     0.434607  Biso 1.000000    Cu
   Cu   1.0     0.000235     0.565345    -0.000034  Biso 1.000000    Cu
   Cu   1.0     0.434599    -0.000181     0.565419  Biso 1.000000    Cu
   Cu   1.0    -0.000295     0.434699     0.000081  Biso 1.000000    Cu
   Cu   1.0     0.565375     0.434645     0.000136  Biso 1.000000    Cu
   Cu   1.0    -0.000229     0.000062     0.434620  Biso 1.000000    Cu
   Cu   1.0     0.434607     0.565305    -0.000110  Biso 1.000000    Cu
   Cu   1.0     0.000199    -0.000086     0.565385  Biso 1.000000    Cu
   Cu   1.0     0.565388     0.000091     0.000078  Biso 1.000000    Cu
   Cu   1.0    -0.000087     0.434586     0.565500  Biso 1.000000    Cu
   Cu   1.0     0.434519    -0.000120    -0.000037  Biso 1.000000    Cu
   Cu   1.0     0.000044     0.565377     0.434517  Biso 1.000000    Cu
