#======================================================================

# CRYSTAL DATA

#----------------------------------------------------------------------

data_VESTA_phase_1


_pd_phase_name                         MOF
_cell_length_a                         14.67800
_cell_length_b                         21.37600
_cell_length_c                         21.37600
_cell_angle_alpha                      83.23600
_cell_angle_beta                       69.92700
_cell_angle_gamma                      69.92900
_symmetry_space_group_name_H-M         "P 1"
_symmetry_Int_Tables_number            1

loop_
_symmetry_equiv_pos_as_xyz
   "x, y, z"

loop_
   _atom_site_label
   _atom_site_occupancy
   _atom_site_fract_x
   _atom_site_fract_y
   _atom_site_fract_z
   _atom_site_adp_type
   _atom_site_B_iso_or_equiv
   _atom_site_type_symbol
    C   1.0     0.114469     0.333329     0.410822  Biso 1.000000     C
    C   1.0     0.114354     0.333499     0.910823  Biso 1.000000     C
    C   1.0     0.114204     0.833816     0.410809  Biso 1.000000     C
    C   1.0     0.114202     0.833786     0.911278  Biso 1.000000     C
    C   1.0     0.614473     0.333316     0.410813  Biso 1.000000     C
    C   1.0     0.614366     0.333478     0.910807  Biso 1.000000     C
    C   1.0     0.614197     0.833810     0.410802  Biso 1.000000     C
    C   1.0     0.614194     0.833786     0.911275  Biso 1.000000     C
    C   1.0     0.025429     0.357676     0.115861  Biso 1.000000     C
    C   1.0     0.025176     0.357613     0.616329  Biso 1.000000     C
    C   1.0     0.024984     0.857993     0.115907  Biso 1.000000     C
    C   1.0     0.025070     0.857736     0.616063  Biso 1.000000     C
    C   1.0     0.525428     0.357663     0.115876  Biso 1.000000     C
    C   1.0     0.525162     0.357613     0.616332  Biso 1.000000     C
    C   1.0     0.524978     0.857989     0.115911  Biso 1.000000     C
    C   1.0     0.525062     0.857739     0.616063  Biso 1.000000     C
    C   1.0     0.359020     0.166318     0.088813  Biso 1.000000     C
    C   1.0     0.358820     0.166252     0.589202  Biso 1.000000     C
    C   1.0     0.358839     0.666401     0.089059  Biso 1.000000     C
    C   1.0     0.358432     0.666790     0.589227  Biso 1.000000     C
    C   1.0     0.859015     0.166318     0.088817  Biso 1.000000     C
    C   1.0     0.858814     0.166253     0.589204  Biso 1.000000     C
    C   1.0     0.858826     0.666403     0.089058  Biso 1.000000     C
    C   1.0     0.858430     0.666787     0.589220  Biso 1.000000     C
    C   1.0    -0.001189     0.142256     0.383957  Biso 1.000000     C
    C   1.0    -0.001104     0.141852     0.884322  Biso 1.000000     C
    C   1.0    -0.000923     0.642486     0.383619  Biso 1.000000     C
    C   1.0    -0.001169     0.642283     0.884255  Biso 1.000000     C
    C   1.0     0.498807     0.142255     0.383956  Biso 1.000000     C
    C   1.0     0.498891     0.141853     0.884321  Biso 1.000000     C
    C   1.0     0.499074     0.642493     0.383613  Biso 1.000000     C
    C   1.0     0.498831     0.642285     0.884251  Biso 1.000000     C
    C   1.0     0.475005     0.410782     0.166328  Biso 1.000000     C
    C   1.0     0.474765     0.410893     0.666624  Biso 1.000000     C
    C   1.0     0.474690     0.911116     0.166349  Biso 1.000000     C
    C   1.0     0.474798     0.910841     0.666532  Biso 1.000000     C
    C   1.0     0.974998     0.410774     0.166336  Biso 1.000000     C
    C   1.0     0.974763     0.410891     0.666623  Biso 1.000000     C
    C   1.0     0.974683     0.911117     0.166348  Biso 1.000000     C
    C   1.0     0.974788     0.910849     0.666520  Biso 1.000000     C
    C   1.0     0.359212     0.115814     0.141880  Biso 1.000000     C
    C   1.0     0.358839     0.115802     0.642333  Biso 1.000000     C
    C   1.0     0.359018     0.615872     0.142111  Biso 1.000000     C
    C   1.0     0.358304     0.616491     0.642504  Biso 1.000000     C
    C   1.0     0.859204     0.115818     0.141888  Biso 1.000000     C
    C   1.0     0.858830     0.115804     0.642337  Biso 1.000000     C
    C   1.0     0.859009     0.615871     0.142107  Biso 1.000000     C
    C   1.0     0.858297     0.616494     0.642504  Biso 1.000000     C
    C   1.0     0.052125     0.089198     0.333437  Biso 1.000000     C
    C   1.0     0.052151     0.088733     0.833855  Biso 1.000000     C
    C   1.0     0.052227     0.589294     0.333216  Biso 1.000000     C
    C   1.0     0.052014     0.589178     0.833781  Biso 1.000000     C
    C   1.0     0.552122     0.089200     0.333433  Biso 1.000000     C
    C   1.0     0.552145     0.088734     0.833855  Biso 1.000000     C
    C   1.0     0.552217     0.589278     0.333235  Biso 1.000000     C
    C   1.0     0.552010     0.589175     0.833782  Biso 1.000000     C
    C   1.0     0.117284     0.383665     0.357575  Biso 1.000000     C
    C   1.0     0.117273     0.383949     0.857698  Biso 1.000000     C
    C   1.0     0.116906     0.884309     0.357729  Biso 1.000000     C
    C   1.0     0.117047     0.884188     0.858108  Biso 1.000000     C
    C   1.0     0.617279     0.383667     0.357580  Biso 1.000000     C
    C   1.0     0.617264     0.383957     0.857710  Biso 1.000000     C
    C   1.0     0.616887     0.884322     0.357740  Biso 1.000000     C
    C   1.0     0.617040     0.884189     0.858104  Biso 1.000000     C
    C   1.0     0.266307     0.160887     0.083430  Biso 1.000000     C
    C   1.0     0.266326     0.160679     0.583592  Biso 1.000000     C
    C   1.0     0.266212     0.660894     0.083594  Biso 1.000000     C
    C   1.0     0.266045     0.661087     0.583547  Biso 1.000000     C
    C   1.0     0.766292     0.160895     0.083443  Biso 1.000000     C
    C   1.0     0.766314     0.160686     0.583598  Biso 1.000000     C
    C   1.0     0.766205     0.660891     0.083588  Biso 1.000000     C
    C   1.0     0.766036     0.661090     0.583548  Biso 1.000000     C
    C   1.0     0.126319     0.365913     0.107665  Biso 1.000000     C
    C   1.0     0.126043     0.365954     0.607937  Biso 1.000000     C
    C   1.0     0.126010     0.865916     0.107910  Biso 1.000000     C
    C   1.0     0.126053     0.865793     0.607876  Biso 1.000000     C
    C   1.0     0.626312     0.365919     0.107663  Biso 1.000000     C
    C   1.0     0.626029     0.365958     0.607936  Biso 1.000000     C
    C   1.0     0.626003     0.865917     0.107909  Biso 1.000000     C
    C   1.0     0.626047     0.865789     0.607882  Biso 1.000000     C
    C   1.0     0.010755     0.338962     0.416472  Biso 1.000000     C
    C   1.0     0.010867     0.338939     0.916081  Biso 1.000000     C
    C   1.0     0.010519     0.839419     0.416434  Biso 1.000000     C
    C   1.0     0.010758     0.839124     0.916566  Biso 1.000000     C
    C   1.0     0.510745     0.338968     0.416480  Biso 1.000000     C
    C   1.0     0.510850     0.338954     0.916102  Biso 1.000000     C
    C   1.0     0.510495     0.839436     0.416449  Biso 1.000000     C
    C   1.0     0.510749     0.839126     0.916564  Biso 1.000000     C
    C   1.0     0.099670     0.134171     0.392153  Biso 1.000000     C
    C   1.0     0.099835     0.133827     0.892376  Biso 1.000000     C
    C   1.0     0.099912     0.634057     0.392032  Biso 1.000000     C
    C   1.0     0.099726     0.633969     0.892542  Biso 1.000000     C
    C   1.0     0.599665     0.134172     0.392152  Biso 1.000000     C
    C   1.0     0.599829     0.133826     0.892379  Biso 1.000000     C
    C   1.0     0.599904     0.634045     0.392045  Biso 1.000000     C
    C   1.0     0.599727     0.633972     0.892534  Biso 1.000000     C
    C   1.0     0.073071     0.416340     0.160821  Biso 1.000000     C
    C   1.0     0.072869     0.416510     0.660991  Biso 1.000000     C
    C   1.0     0.072854     0.916410     0.160993  Biso 1.000000     C
    C   1.0     0.072984     0.916201     0.661052  Biso 1.000000     C
    C   1.0     0.573068     0.416323     0.160841  Biso 1.000000     C
    C   1.0     0.572857     0.416509     0.660994  Biso 1.000000     C
    C   1.0     0.572847     0.916408     0.160996  Biso 1.000000     C
    C   1.0     0.572975     0.916212     0.661043  Biso 1.000000     C
    C   1.0     0.008036     0.392076     0.365987  Biso 1.000000     C
    C   1.0     0.008259     0.392138     0.865700  Biso 1.000000     C
    C   1.0     0.007700     0.892640     0.366072  Biso 1.000000     C
    C   1.0     0.008099     0.892185     0.866057  Biso 1.000000     C
    C   1.0     0.508039     0.392067     0.365980  Biso 1.000000     C
    C   1.0     0.508265     0.392124     0.865690  Biso 1.000000     C
    C   1.0     0.507690     0.892638     0.366067  Biso 1.000000     C
    C   1.0     0.508092     0.892184     0.866052  Biso 1.000000     C
    C   1.0     0.150181     0.083810     0.338937  Biso 1.000000     C
    C   1.0     0.150248     0.083392     0.839249  Biso 1.000000     C
    C   1.0     0.150299     0.583599     0.338906  Biso 1.000000     C
    C   1.0     0.150097     0.583541     0.839392  Biso 1.000000     C
    C   1.0     0.650175     0.083802     0.338944  Biso 1.000000     C
    C   1.0     0.650242     0.083392     0.839251  Biso 1.000000     C
    C   1.0     0.650295     0.583611     0.338896  Biso 1.000000     C
    C   1.0     0.650096     0.583546     0.839383  Biso 1.000000     C
    C   1.0     0.266345     0.107713     0.133823  Biso 1.000000     C
    C   1.0     0.266232     0.107546     0.634040  Biso 1.000000     C
    C   1.0     0.266346     0.607642     0.133912  Biso 1.000000     C
    C   1.0     0.265924     0.608039     0.634098  Biso 1.000000     C
    C   1.0     0.766326     0.107725     0.133841  Biso 1.000000     C
    C   1.0     0.766221     0.107550     0.634044  Biso 1.000000     C
    C   1.0     0.766338     0.607640     0.133907  Biso 1.000000     C
    C   1.0     0.765925     0.608034     0.634092  Biso 1.000000     C
    O   1.0     0.172109     0.296747     0.443197  Biso 1.000000     O
    O   1.0     0.171863     0.296914     0.943284  Biso 1.000000     O
    O   1.0     0.171972     0.797132     0.443052  Biso 1.000000     O
    O   1.0     0.171746     0.797289     0.943750  Biso 1.000000     O
    O   1.0     0.672104     0.296743     0.443198  Biso 1.000000     O
    O   1.0     0.671859     0.296912     0.943287  Biso 1.000000     O
    O   1.0     0.671958     0.797136     0.443055  Biso 1.000000     O
    O   1.0     0.671736     0.797293     0.943749  Biso 1.000000     O
    O   1.0    -0.002688     0.320542     0.090846  Biso 1.000000     O
    O   1.0    -0.002874     0.320266     0.591535  Biso 1.000000     O
    O   1.0    -0.003334     0.821041     0.090813  Biso 1.000000     O
    O   1.0    -0.003162     0.820678     0.591040  Biso 1.000000     O
    O   1.0     0.497305     0.320544     0.090846  Biso 1.000000     O
    O   1.0     0.497112     0.320267     0.591537  Biso 1.000000     O
    O   1.0     0.496661     0.821039     0.090814  Biso 1.000000     O
    O   1.0     0.496831     0.820670     0.591053  Biso 1.000000     O
    O   1.0     0.412453     0.202899     0.056442  Biso 1.000000     O
    O   1.0     0.412237     0.202863     0.556885  Biso 1.000000     O
    O   1.0     0.412189     0.703056     0.056755  Biso 1.000000     O
    O   1.0     0.411923     0.703324     0.556802  Biso 1.000000     O
    O   1.0     0.912454     0.202894     0.056440  Biso 1.000000     O
    O   1.0     0.912231     0.202864     0.556888  Biso 1.000000     O
    O   1.0     0.912176     0.703059     0.056755  Biso 1.000000     O
    O   1.0     0.911912     0.703327     0.556801  Biso 1.000000     O
    O   1.0     0.408512     0.179297     0.408978  Biso 1.000000     O
    O   1.0     0.408613     0.178909     0.909349  Biso 1.000000     O
    O   1.0     0.408912     0.679790     0.408493  Biso 1.000000     O
    O   1.0     0.408607     0.679472     0.909180  Biso 1.000000     O
    O   1.0     0.908500     0.179290     0.408988  Biso 1.000000     O
    O   1.0     0.908603     0.178907     0.909351  Biso 1.000000     O
    O   1.0     0.908905     0.679797     0.408484  Biso 1.000000     O
    O   1.0     0.908595     0.679476     0.909179  Biso 1.000000     O
    O   1.0     0.384983     0.443082     0.202941  Biso 1.000000     O
    O   1.0     0.384746     0.443325     0.703135  Biso 1.000000     O
    O   1.0     0.384689     0.943560     0.202869  Biso 1.000000     O
    O   1.0     0.384817     0.943259     0.703110  Biso 1.000000     O
    O   1.0     0.884975     0.443086     0.202936  Biso 1.000000     O
    O   1.0     0.884742     0.443327     0.703129  Biso 1.000000     O
    O   1.0     0.884681     0.943564     0.202865  Biso 1.000000     O
    O   1.0     0.884808     0.943258     0.703108  Biso 1.000000     O
    O   1.0     0.412486     0.090781     0.178916  Biso 1.000000     O
    O   1.0     0.411841     0.090849     0.679546  Biso 1.000000     O
    O   1.0     0.412148     0.590853     0.179235  Biso 1.000000     O
    O   1.0     0.411049     0.591711     0.679899  Biso 1.000000     O
    O   1.0     0.912487     0.090781     0.178918  Biso 1.000000     O
    O   1.0     0.911836     0.090847     0.679547  Biso 1.000000     O
    O   1.0     0.912136     0.590855     0.179233  Biso 1.000000     O
    O   1.0     0.911048     0.591710     0.679894  Biso 1.000000     O
    O   1.0     0.031189     0.056812     0.296786  Biso 1.000000     O
    O   1.0     0.031151     0.056286     0.797295  Biso 1.000000     O
    O   1.0     0.031194     0.556959     0.296574  Biso 1.000000     O
    O   1.0     0.030958     0.556893     0.797112  Biso 1.000000     O
    O   1.0     0.531182     0.056811     0.296788  Biso 1.000000     O
    O   1.0     0.531144     0.056288     0.797296  Biso 1.000000     O
    O   1.0     0.531188     0.556959     0.296576  Biso 1.000000     O
    O   1.0     0.530954     0.556890     0.797113  Biso 1.000000     O
    O   1.0     0.182629     0.408504     0.320264  Biso 1.000000     O
    O   1.0     0.182557     0.408997     0.820703  Biso 1.000000     O
    O   1.0     0.182223     0.909238     0.320555  Biso 1.000000     O
    O   1.0     0.182327     0.909221     0.821083  Biso 1.000000     O
    O   1.0     0.682630     0.408496     0.320260  Biso 1.000000     O
    O   1.0     0.682563     0.408982     0.820693  Biso 1.000000     O
    O   1.0     0.682214     0.909236     0.320553  Biso 1.000000     O
    O   1.0     0.682319     0.909222     0.821080  Biso 1.000000     O
    O   1.0     0.212669     0.193349     0.047004  Biso 1.000000     O
    O   1.0     0.212962     0.193018     0.546958  Biso 1.000000     O
    O   1.0     0.212594     0.693342     0.047154  Biso 1.000000     O
    O   1.0     0.212813     0.693278     0.546785  Biso 1.000000     O
    O   1.0     0.712654     0.193356     0.047017  Biso 1.000000     O
    O   1.0     0.712951     0.193024     0.546964  Biso 1.000000     O
    O   1.0     0.712587     0.693341     0.047149  Biso 1.000000     O
    O   1.0     0.712806     0.693277     0.546784  Biso 1.000000     O
    O   1.0     0.216571     0.340988     0.070518  Biso 1.000000     O
    O   1.0     0.216206     0.341008     0.570665  Biso 1.000000     O
    O   1.0     0.216322     0.840722     0.070979  Biso 1.000000     O
    O   1.0     0.216270     0.840710     0.570746  Biso 1.000000     O
    O   1.0     0.716570     0.340979     0.070531  Biso 1.000000     O
    O   1.0     0.716192     0.341011     0.570664  Biso 1.000000     O
    O   1.0     0.716315     0.840721     0.070980  Biso 1.000000     O
    O   1.0     0.716260     0.840716     0.570740  Biso 1.000000     O
    O   1.0     0.453013     0.306720     0.453230  Biso 1.000000     O
    O   1.0     0.453146     0.306552     0.952513  Biso 1.000000     O
    O   1.0     0.452846     0.807069     0.453043  Biso 1.000000     O
    O   1.0     0.453128     0.806686     0.953020  Biso 1.000000     O
    O   1.0     0.953004     0.306722     0.453231  Biso 1.000000     O
    O   1.0     0.953134     0.306554     0.952512  Biso 1.000000     O
    O   1.0     0.952845     0.807064     0.453040  Biso 1.000000     O
    O   1.0     0.953123     0.806683     0.953022  Biso 1.000000     O
    O   1.0     0.127669     0.159212     0.429336  Biso 1.000000     O
    O   1.0     0.128014     0.158927     0.929404  Biso 1.000000     O
    O   1.0     0.127944     0.658914     0.429342  Biso 1.000000     O
    O   1.0     0.127861     0.658871     0.929751  Biso 1.000000     O
    O   1.0     0.627662     0.159207     0.429341  Biso 1.000000     O
    O   1.0     0.628007     0.158923     0.929409  Biso 1.000000     O
    O   1.0     0.627940     0.658919     0.429340  Biso 1.000000     O
    O   1.0     0.627867     0.658879     0.929737  Biso 1.000000     O
    O   1.0     0.094046     0.452969     0.193203  Biso 1.000000     O
    O   1.0     0.093864     0.453252     0.693246  Biso 1.000000     O
    O   1.0     0.093979     0.952899     0.193429  Biso 1.000000     O
    O   1.0     0.094159     0.952679     0.693463  Biso 1.000000     O
    O   1.0     0.594037     0.452968     0.193209  Biso 1.000000     O
    O   1.0     0.593854     0.453253     0.693246  Biso 1.000000     O
    O   1.0     0.593971     0.952901     0.193427  Biso 1.000000     O
    O   1.0     0.594152     0.952683     0.693461  Biso 1.000000     O
    O   1.0     0.442732     0.429356     0.341101  Biso 1.000000     O
    O   1.0     0.443163     0.429289     0.840597  Biso 1.000000     O
    O   1.0     0.442311     0.929912     0.341242  Biso 1.000000     O
    O   1.0     0.442962     0.929105     0.840854  Biso 1.000000     O
    O   1.0     0.942720     0.429354     0.341098  Biso 1.000000     O
    O   1.0     0.943157     0.429282     0.840584  Biso 1.000000     O
    O   1.0     0.942314     0.929901     0.341234  Biso 1.000000     O
    O   1.0     0.942954     0.929105     0.840860  Biso 1.000000     O
    O   1.0     0.240240     0.047360     0.306520  Biso 1.000000     O
    O   1.0     0.240309     0.046977     0.806791  Biso 1.000000     O
    O   1.0     0.240288     0.546864     0.306683  Biso 1.000000     O
    O   1.0     0.240096     0.546920     0.807061  Biso 1.000000     O
    O   1.0     0.740235     0.047353     0.306526  Biso 1.000000     O
    O   1.0     0.740303     0.046976     0.806795  Biso 1.000000     O
    O   1.0     0.740281     0.546863     0.306685  Biso 1.000000     O
    O   1.0     0.740094     0.546920     0.807053  Biso 1.000000     O
    O   1.0     0.213152     0.070633     0.158866  Biso 1.000000     O
    O   1.0     0.213192     0.070348     0.658959  Biso 1.000000     O
    O   1.0     0.213345     0.570429     0.158866  Biso 1.000000     O
    O   1.0     0.213101     0.570710     0.659005  Biso 1.000000     O
    O   1.0     0.713123     0.070652     0.158892  Biso 1.000000     O
    O   1.0     0.713176     0.070356     0.658965  Biso 1.000000     O
    O   1.0     0.713342     0.570423     0.158859  Biso 1.000000     O
    O   1.0     0.713096     0.570710     0.659004  Biso 1.000000     O
   Ca   1.0     0.062554     0.230960     0.018897  Biso 1.000000    Ca
   Ca   1.0     0.062496     0.230905     0.519170  Biso 1.000000    Ca
   Ca   1.0     0.062404     0.731087     0.019168  Biso 1.000000    Ca
   Ca   1.0     0.062419     0.731123     0.518888  Biso 1.000000    Ca
   Ca   1.0     0.562545     0.230959     0.018901  Biso 1.000000    Ca
   Ca   1.0     0.562487     0.230904     0.519172  Biso 1.000000    Ca
   Ca   1.0     0.562399     0.731088     0.019163  Biso 1.000000    Ca
   Ca   1.0     0.562411     0.731125     0.518889  Biso 1.000000    Ca
   Ca   1.0     0.312515     0.268898     0.481085  Biso 1.000000    Ca
   Ca   1.0     0.312528     0.268930     0.980884  Biso 1.000000    Ca
   Ca   1.0     0.312489     0.769132     0.480828  Biso 1.000000    Ca
   Ca   1.0     0.312503     0.769079     0.981159  Biso 1.000000    Ca
   Ca   1.0     0.812507     0.268898     0.481087  Biso 1.000000    Ca
   Ca   1.0     0.812521     0.268928     0.980889  Biso 1.000000    Ca
   Ca   1.0     0.812481     0.769134     0.480825  Biso 1.000000    Ca
   Ca   1.0     0.812493     0.769081     0.981158  Biso 1.000000    Ca
   Ca   1.0     0.418462     0.019210     0.268888  Biso 1.000000    Ca
   Ca   1.0     0.418515     0.018866     0.769121  Biso 1.000000    Ca
   Ca   1.0     0.418601     0.518914     0.268931  Biso 1.000000    Ca
   Ca   1.0     0.418349     0.519222     0.769079  Biso 1.000000    Ca
   Ca   1.0     0.918456     0.019207     0.268889  Biso 1.000000    Ca
   Ca   1.0     0.918509     0.018862     0.769122  Biso 1.000000    Ca
   Ca   1.0     0.918595     0.518914     0.268928  Biso 1.000000    Ca
   Ca   1.0     0.918345     0.519222     0.769073  Biso 1.000000    Ca
   Ca   1.0     0.206723     0.480837     0.230885  Biso 1.000000    Ca
   Ca   1.0     0.206471     0.481111     0.731101  Biso 1.000000    Ca
   Ca   1.0     0.206529     0.981107     0.230892  Biso 1.000000    Ca
   Ca   1.0     0.206593     0.980842     0.731127  Biso 1.000000    Ca
   Ca   1.0     0.706716     0.480837     0.230886  Biso 1.000000    Ca
   Ca   1.0     0.706466     0.481108     0.731099  Biso 1.000000    Ca
   Ca   1.0     0.706519     0.981107     0.230894  Biso 1.000000    Ca
   Ca   1.0     0.706585     0.980845     0.731127  Biso 1.000000    Ca
