#======================================================================

# CRYSTAL DATA

#----------------------------------------------------------------------

data_VESTA_phase_1


_pd_phase_name                         MOF
_cell_length_a                         14.41800
_cell_length_b                         14.30400
_cell_length_c                         15.43600
_cell_angle_alpha                      89.97800
_cell_angle_beta                       90.00000
_cell_angle_gamma                      89.98500
_symmetry_space_group_name_H-M         "P 1"
_symmetry_Int_Tables_number            1

loop_
_symmetry_equiv_pos_as_xyz
   "x, y, z"

loop_
   _atom_site_label
   _atom_site_occupancy
   _atom_site_fract_x
   _atom_site_fract_y
   _atom_site_fract_z
   _atom_site_adp_type
   _atom_site_B_iso_or_equiv
   _atom_site_type_symbol
    H   1.0     0.250411     0.412684     0.385719  Biso 1.000000     H
    H   1.0     0.249286     0.412513     0.885189  Biso 1.000000     H
    H   1.0     0.249787     0.912959     0.384912  Biso 1.000000     H
    H   1.0     0.250345     0.912574     0.885495  Biso 1.000000     H
    H   1.0     0.749909     0.412306     0.385319  Biso 1.000000     H
    H   1.0     0.749899     0.412298     0.885315  Biso 1.000000     H
    H   1.0     0.749951     0.912421     0.385345  Biso 1.000000     H
    H   1.0     0.749988     0.912419     0.885330  Biso 1.000000     H
    H   1.0     0.249807     0.087994     0.384879  Biso 1.000000     H
    H   1.0     0.250695     0.087714     0.885454  Biso 1.000000     H
    H   1.0     0.250426     0.588003     0.385814  Biso 1.000000     H
    H   1.0     0.249653     0.587723     0.885182  Biso 1.000000     H
    H   1.0     0.749999     0.087480     0.385355  Biso 1.000000     H
    H   1.0     0.750001     0.087479     0.885341  Biso 1.000000     H
    H   1.0     0.749951     0.587617     0.385319  Biso 1.000000     H
    H   1.0     0.749899     0.587608     0.885321  Biso 1.000000     H
    H   1.0     0.087016     0.250973     0.385247  Biso 1.000000     H
    H   1.0     0.086983     0.249297     0.885305  Biso 1.000000     H
    H   1.0     0.086962     0.750273     0.385340  Biso 1.000000     H
    H   1.0     0.086974     0.749649     0.885299  Biso 1.000000     H
    H   1.0     0.586951     0.249882     0.385315  Biso 1.000000     H
    H   1.0     0.586969     0.250368     0.885257  Biso 1.000000     H
    H   1.0     0.587007     0.749933     0.385295  Biso 1.000000     H
    H   1.0     0.586989     0.749885     0.885294  Biso 1.000000     H
    H   1.0     0.412994     0.250140     0.385284  Biso 1.000000     H
    H   1.0     0.413029     0.250585     0.885271  Biso 1.000000     H
    H   1.0     0.413046     0.750196     0.385331  Biso 1.000000     H
    H   1.0     0.413026     0.749917     0.885308  Biso 1.000000     H
    H   1.0     0.913039     0.250705     0.385276  Biso 1.000000     H
    H   1.0     0.913025     0.249694     0.885294  Biso 1.000000     H
    H   1.0     0.912982     0.749993     0.385307  Biso 1.000000     H
    H   1.0     0.912991     0.749551     0.885282  Biso 1.000000     H
    H   1.0     0.249272     0.412979     0.115040  Biso 1.000000     H
    H   1.0     0.250378     0.412538     0.614513  Biso 1.000000     H
    H   1.0     0.250341     0.912914     0.114242  Biso 1.000000     H
    H   1.0     0.249767     0.912652     0.614786  Biso 1.000000     H
    H   1.0     0.749953     0.412408     0.114658  Biso 1.000000     H
    H   1.0     0.749942     0.412411     0.614654  Biso 1.000000     H
    H   1.0     0.749963     0.912541     0.114635  Biso 1.000000     H
    H   1.0     0.749917     0.912541     0.614620  Biso 1.000000     H
    H   1.0     0.250686     0.088052     0.114185  Biso 1.000000     H
    H   1.0     0.249797     0.087691     0.614756  Biso 1.000000     H
    H   1.0     0.249632     0.588192     0.115115  Biso 1.000000     H
    H   1.0     0.250401     0.587862     0.614521  Biso 1.000000     H
    H   1.0     0.749971     0.087600     0.114645  Biso 1.000000     H
    H   1.0     0.749967     0.087600     0.614631  Biso 1.000000     H
    H   1.0     0.749948     0.587717     0.114658  Biso 1.000000     H
    H   1.0     0.749986     0.587722     0.614659  Biso 1.000000     H
    H   1.0     0.413065     0.250885     0.114662  Biso 1.000000     H
    H   1.0     0.413023     0.249988     0.614650  Biso 1.000000     H
    H   1.0     0.412982     0.750105     0.114728  Biso 1.000000     H
    H   1.0     0.413002     0.750115     0.614706  Biso 1.000000     H
    H   1.0     0.912995     0.249766     0.114675  Biso 1.000000     H
    H   1.0     0.913009     0.250687     0.614692  Biso 1.000000     H
    H   1.0     0.913037     0.749618     0.114705  Biso 1.000000     H
    H   1.0     0.913019     0.750026     0.614680  Biso 1.000000     H
    H   1.0     0.086952     0.249549     0.114628  Biso 1.000000     H
    H   1.0     0.086984     0.250754     0.614685  Biso 1.000000     H
    H   1.0     0.087022     0.749829     0.114738  Biso 1.000000     H
    H   1.0     0.087003     0.750156     0.614697  Biso 1.000000     H
    H   1.0     0.587002     0.250501     0.114713  Biso 1.000000     H
    H   1.0     0.586979     0.249924     0.614655  Biso 1.000000     H
    H   1.0     0.586948     0.749965     0.114694  Biso 1.000000     H
    H   1.0     0.586967     0.749994     0.614692  Biso 1.000000     H
    C   1.0     0.250219     0.451728     0.325153  Biso 1.000000     C
    C   1.0     0.249694     0.451452     0.824582  Biso 1.000000     C
    C   1.0     0.249902     0.951830     0.324272  Biso 1.000000     C
    C   1.0     0.250232     0.951464     0.824848  Biso 1.000000     C
    C   1.0     0.749929     0.451318     0.324737  Biso 1.000000     C
    C   1.0     0.749913     0.451312     0.824734  Biso 1.000000     C
    C   1.0     0.749970     0.951307     0.324698  Biso 1.000000     C
    C   1.0     0.749985     0.951306     0.824683  Biso 1.000000     C
    C   1.0     0.249930     0.049149     0.324239  Biso 1.000000     C
    C   1.0     0.250326     0.048810     0.824833  Biso 1.000000     C
    C   1.0     0.250249     0.549082     0.325192  Biso 1.000000     C
    C   1.0     0.249797     0.548779     0.824589  Biso 1.000000     C
    C   1.0     0.749987     0.048648     0.324704  Biso 1.000000     C
    C   1.0     0.749994     0.048646     0.824690  Biso 1.000000     C
    C   1.0     0.749946     0.548651     0.324738  Biso 1.000000     C
    C   1.0     0.749919     0.548646     0.824737  Biso 1.000000     C
    C   1.0     0.048349     0.250627     0.324637  Biso 1.000000     C
    C   1.0     0.048343     0.249767     0.824676  Biso 1.000000     C
    C   1.0     0.048316     0.750158     0.324716  Biso 1.000000     C
    C   1.0     0.048320     0.749793     0.824679  Biso 1.000000     C
    C   1.0     0.548303     0.250025     0.324692  Biso 1.000000     C
    C   1.0     0.548312     0.250239     0.824639  Biso 1.000000     C
    C   1.0     0.548332     0.750035     0.324688  Biso 1.000000     C
    C   1.0     0.548323     0.749968     0.824681  Biso 1.000000     C
    C   1.0     0.451662     0.250177     0.324673  Biso 1.000000     C
    C   1.0     0.451669     0.250311     0.824643  Biso 1.000000     C
    C   1.0     0.451692     0.750156     0.324707  Biso 1.000000     C
    C   1.0     0.451682     0.749995     0.824689  Biso 1.000000     C
    C   1.0     0.951688     0.250506     0.324654  Biso 1.000000     C
    C   1.0     0.951678     0.249849     0.824674  Biso 1.000000     C
    C   1.0     0.951654     0.750022     0.324698  Biso 1.000000     C
    C   1.0     0.951658     0.749738     0.824670  Biso 1.000000     C
    C   1.0     0.249687     0.451854     0.175667  Biso 1.000000     C
    C   1.0     0.250200     0.451504     0.675095  Biso 1.000000     C
    C   1.0     0.250230     0.951800     0.174866  Biso 1.000000     C
    C   1.0     0.249892     0.951489     0.675435  Biso 1.000000     C
    C   1.0     0.749945     0.451373     0.175240  Biso 1.000000     C
    C   1.0     0.749943     0.451375     0.675237  Biso 1.000000     C
    C   1.0     0.749972     0.951373     0.175286  Biso 1.000000     C
    C   1.0     0.749950     0.951373     0.675272  Biso 1.000000     C
    C   1.0     0.250320     0.049147     0.174824  Biso 1.000000     C
    C   1.0     0.249924     0.048829     0.675416  Biso 1.000000     C
    C   1.0     0.249786     0.549181     0.175694  Biso 1.000000     C
    C   1.0     0.250235     0.548839     0.675097  Biso 1.000000     C
    C   1.0     0.749978     0.048714     0.175292  Biso 1.000000     C
    C   1.0     0.749969     0.048714     0.675278  Biso 1.000000     C
    C   1.0     0.749950     0.548707     0.175241  Biso 1.000000     C
    C   1.0     0.749962     0.548708     0.675240  Biso 1.000000     C
    C   1.0     0.451690     0.250538     0.175299  Biso 1.000000     C
    C   1.0     0.451678     0.250030     0.675269  Biso 1.000000     C
    C   1.0     0.451657     0.750128     0.175336  Biso 1.000000     C
    C   1.0     0.451669     0.750079     0.675318  Biso 1.000000     C
    C   1.0     0.951661     0.249948     0.175287  Biso 1.000000     C
    C   1.0     0.951671     0.250431     0.675307  Biso 1.000000     C
    C   1.0     0.951686     0.749807     0.175328  Biso 1.000000     C
    C   1.0     0.951674     0.749999     0.675300  Biso 1.000000     C
    C   1.0     0.048325     0.249969     0.175265  Biso 1.000000     C
    C   1.0     0.048331     0.250442     0.675304  Biso 1.000000     C
    C   1.0     0.048349     0.749926     0.175346  Biso 1.000000     C
    C   1.0     0.048336     0.750057     0.675309  Biso 1.000000     C
    C   1.0     0.548332     0.250369     0.175323  Biso 1.000000     C
    C   1.0     0.548317     0.249984     0.675270  Biso 1.000000     C
    C   1.0     0.548298     0.750040     0.175317  Biso 1.000000     C
    C   1.0     0.548309     0.750032     0.675310  Biso 1.000000     C
    N   1.0     0.249933     0.402961     0.250384  Biso 1.000000     N
    N   1.0     0.249926     0.402656     0.749845  Biso 1.000000     N
    N   1.0     0.250009     0.902902     0.249594  Biso 1.000000     N
    N   1.0     0.250001     0.902565     0.750146  Biso 1.000000     N
    N   1.0     0.749917     0.402532     0.249990  Biso 1.000000     N
    N   1.0     0.749918     0.402530     0.749985  Biso 1.000000     N
    N   1.0     0.749956     0.902428     0.249990  Biso 1.000000     N
    N   1.0     0.749961     0.902428     0.749976  Biso 1.000000     N
    N   1.0     0.250141     0.098049     0.249520  Biso 1.000000     N
    N   1.0     0.250144     0.097726     0.750110  Biso 1.000000     N
    N   1.0     0.250054     0.597944     0.250454  Biso 1.000000     N
    N   1.0     0.250054     0.597622     0.749848  Biso 1.000000     N
    N   1.0     0.750016     0.097592     0.250000  Biso 1.000000     N
    N   1.0     0.750007     0.097591     0.749986  Biso 1.000000     N
    N   1.0     0.749973     0.597493     0.249988  Biso 1.000000     N
    N   1.0     0.749959     0.597491     0.749989  Biso 1.000000     N
    N   1.0     0.096911     0.250370     0.249943  Biso 1.000000     N
    N   1.0     0.096911     0.250123     0.749987  Biso 1.000000     N
    N   1.0     0.096904     0.750125     0.250041  Biso 1.000000     N
    N   1.0     0.096900     0.749974     0.749999  Biso 1.000000     N
    N   1.0     0.596889     0.250157     0.250015  Biso 1.000000     N
    N   1.0     0.596886     0.250117     0.749957  Biso 1.000000     N
    N   1.0     0.596885     0.749984     0.249993  Biso 1.000000     N
    N   1.0     0.596886     0.749973     0.749992  Biso 1.000000     N
    N   1.0     0.403103     0.250437     0.249978  Biso 1.000000     N
    N   1.0     0.403100     0.250198     0.749954  Biso 1.000000     N
    N   1.0     0.403104     0.750174     0.250032  Biso 1.000000     N
    N   1.0     0.403105     0.750030     0.750007  Biso 1.000000     N
    N   1.0     0.903101     0.250202     0.249977  Biso 1.000000     N
    N   1.0     0.903101     0.250163     0.749993  Biso 1.000000     N
    N   1.0     0.903099     0.749839     0.250004  Biso 1.000000     N
    N   1.0     0.903094     0.749818     0.749981  Biso 1.000000     N
    F   1.0     0.249996     0.250741     0.385046  Biso 1.000000     F
    F   1.0     0.249998     0.251001     0.885131  Biso 1.000000     F
    F   1.0     0.250001     0.752696     0.385067  Biso 1.000000     F
    F   1.0     0.250000     0.749310     0.885050  Biso 1.000000     F
    F   1.0     0.749988     0.250724     0.385054  Biso 1.000000     F
    F   1.0     0.749986     0.250721     0.885040  Biso 1.000000     F
    F   1.0     0.749990     0.749309     0.385051  Biso 1.000000     F
    F   1.0     0.749991     0.749307     0.885040  Biso 1.000000     F
    F   1.0     0.249998     0.251008     0.114827  Biso 1.000000     F
    F   1.0     0.249996     0.250718     0.614911  Biso 1.000000     F
    F   1.0     0.250000     0.749311     0.114953  Biso 1.000000     F
    F   1.0     0.250001     0.749306     0.614931  Biso 1.000000     F
    F   1.0     0.749985     0.250714     0.114938  Biso 1.000000     F
    F   1.0     0.749988     0.250713     0.614924  Biso 1.000000     F
    F   1.0     0.749991     0.749300     0.114934  Biso 1.000000     F
    F   1.0     0.749990     0.749298     0.614922  Biso 1.000000     F
    F   1.0     0.335096     0.332794    -0.000011  Biso 1.000000     F
    F   1.0     0.332591     0.333198     0.499980  Biso 1.000000     F
    F   1.0     0.332303     0.834787    -0.000006  Biso 1.000000     F
    F   1.0     0.332444     0.835001     0.500224  Biso 1.000000     F
    F   1.0     0.832583     0.333194    -0.000007  Biso 1.000000     F
    F   1.0     0.832598     0.333193     0.499981  Biso 1.000000     F
    F   1.0     0.832291     0.834774    -0.000007  Biso 1.000000     F
    F   1.0     0.832293     0.834769     0.499981  Biso 1.000000     F
    F   1.0     0.164894     0.169253     0.000007  Biso 1.000000     F
    F   1.0     0.167696     0.165255     0.499992  Biso 1.000000     F
    F   1.0     0.167394     0.666834     0.000012  Biso 1.000000     F
    F   1.0     0.167558     0.667039     0.499758  Biso 1.000000     F
    F   1.0     0.667687     0.165254     0.000007  Biso 1.000000     F
    F   1.0     0.667679     0.165250     0.499995  Biso 1.000000     F
    F   1.0     0.667391     0.666833     0.000007  Biso 1.000000     F
    F   1.0     0.667385     0.666829     0.499995  Biso 1.000000     F
    F   1.0     0.168837     0.336842    -0.000011  Biso 1.000000     F
    F   1.0     0.167371     0.333205     0.499980  Biso 1.000000     F
    F   1.0     0.167690     0.834790    -0.000006  Biso 1.000000     F
    F   1.0     0.167538     0.835020     0.500224  Biso 1.000000     F
    F   1.0     0.667360     0.333205    -0.000007  Biso 1.000000     F
    F   1.0     0.667372     0.333202     0.499981  Biso 1.000000     F
    F   1.0     0.667674     0.834790    -0.000007  Biso 1.000000     F
    F   1.0     0.667677     0.834785     0.499981  Biso 1.000000     F
    F   1.0     0.331187     0.165204     0.000006  Biso 1.000000     F
    F   1.0     0.332314     0.165245     0.499991  Biso 1.000000     F
    F   1.0     0.332620     0.666827     0.999988  Biso 1.000000     F
    F   1.0     0.332461     0.667020     0.499758  Biso 1.000000     F
    F   1.0     0.832302     0.165236     0.000007  Biso 1.000000     F
    F   1.0     0.832297     0.165235     0.499995  Biso 1.000000     F
    F   1.0     0.832616     0.666823     0.000007  Biso 1.000000     F
    F   1.0     0.832614     0.666818     0.499995  Biso 1.000000     F
   Si   1.0     0.250006     0.251021    -0.000020  Biso 1.000000    Si
   Si   1.0     0.249989     0.249461     0.499968  Biso 1.000000    Si
   Si   1.0     0.250001     0.750538     0.000028  Biso 1.000000    Si
   Si   1.0     0.249997     0.751064     0.500014  Biso 1.000000    Si
   Si   1.0     0.749985     0.249484     0.000002  Biso 1.000000    Si
   Si   1.0     0.749991     0.249471     0.499990  Biso 1.000000    Si
   Si   1.0     0.749994     0.750551    -0.000001  Biso 1.000000    Si
   Si   1.0     0.749993     0.750541     0.499986  Biso 1.000000    Si
   Zn   1.0     0.250002     0.250675     0.249966  Biso 1.000000    Zn
   Zn   1.0     0.250001     0.250533     0.749852  Biso 1.000000    Zn
   Zn   1.0     0.250003     0.749929     0.250130  Biso 1.000000    Zn
   Zn   1.0     0.250002     0.749673     0.750058  Biso 1.000000    Zn
   Zn   1.0     0.749989     0.250422     0.250002  Biso 1.000000    Zn
   Zn   1.0     0.749989     0.250425     0.749993  Biso 1.000000    Zn
   Zn   1.0     0.749990     0.749591     0.249977  Biso 1.000000    Zn
   Zn   1.0     0.749989     0.749592     0.749978  Biso 1.000000    Zn
