#======================================================================

# CRYSTAL DATA

#----------------------------------------------------------------------

data_VESTA_phase_1


_pd_phase_name                         MOF
_cell_length_a                         23.26300
_cell_length_b                         15.81600
_cell_length_c                         15.99300
_cell_angle_alpha                      90.01400
_cell_angle_beta                       89.91600
_cell_angle_gamma                      90.00600
_symmetry_space_group_name_H-M         "P 1"
_symmetry_Int_Tables_number            1

loop_
_symmetry_equiv_pos_as_xyz
   "x, y, z"

loop_
   _atom_site_label
   _atom_site_occupancy
   _atom_site_fract_x
   _atom_site_fract_y
   _atom_site_fract_z
   _atom_site_adp_type
   _atom_site_B_iso_or_equiv
   _atom_site_type_symbol
    H   1.0     0.147425     0.749350     0.556850  Biso 1.000000     H
    H   1.0     0.646416     0.751556     0.560364  Biso 1.000000     H
    H   1.0     0.293586     0.708806     0.778919  Biso 1.000000     H
    H   1.0     0.795361     0.708912     0.778110  Biso 1.000000     H
    H   1.0     0.229506     0.834824     0.781285  Biso 1.000000     H
    H   1.0     0.732393     0.836037     0.782229  Biso 1.000000     H
    H   1.0     0.430470     0.626881     0.794745  Biso 1.000000     H
    H   1.0     0.932330     0.626040     0.790556  Biso 1.000000     H
    H   1.0     0.491391     0.756861     0.791096  Biso 1.000000     H
    H   1.0     0.992621     0.756600     0.786785  Biso 1.000000     H
    H   1.0     0.208773     0.620778     0.555932  Biso 1.000000     H
    H   1.0     0.707218     0.622368     0.557287  Biso 1.000000     H
    H   1.0     0.414000     0.828998     0.558336  Biso 1.000000     H
    H   1.0     0.910551     0.832345     0.558462  Biso 1.000000     H
    H   1.0     0.349209     0.704125     0.565448  Biso 1.000000     H
    H   1.0     0.846664     0.706518     0.565769  Biso 1.000000     H
    H   1.0     0.147716     0.246531     0.560966  Biso 1.000000     H
    H   1.0     0.648464     0.247901     0.556250  Biso 1.000000     H
    H   1.0     0.295990     0.290311     0.779470  Biso 1.000000     H
    H   1.0     0.795018     0.291365     0.777267  Biso 1.000000     H
    H   1.0     0.233459     0.162754     0.783262  Biso 1.000000     H
    H   1.0     0.731560     0.164679     0.780672  Biso 1.000000     H
    H   1.0     0.433332     0.374135     0.791416  Biso 1.000000     H
    H   1.0     0.931429     0.373931     0.791739  Biso 1.000000     H
    H   1.0     0.493786     0.243805     0.786824  Biso 1.000000     H
    H   1.0     0.992322     0.243892     0.787973  Biso 1.000000     H
    H   1.0     0.208061     0.376133     0.558248  Biso 1.000000     H
    H   1.0     0.709226     0.377144     0.554272  Biso 1.000000     H
    H   1.0     0.411301     0.168624     0.558610  Biso 1.000000     H
    H   1.0     0.914573     0.171551     0.555462  Biso 1.000000     H
    H   1.0     0.347298     0.294221     0.566674  Biso 1.000000     H
    H   1.0     0.849733     0.296375     0.562845  Biso 1.000000     H
    H   1.0     0.169616     0.003577     0.295484  Biso 1.000000     H
    H   1.0     0.669963    -0.003691     0.296165  Biso 1.000000     H
    H   1.0     0.482071     0.004725     0.437264  Biso 1.000000     H
    H   1.0     0.982090    -0.003488     0.437757  Biso 1.000000     H
    H   1.0     0.160620     0.002710     0.451832  Biso 1.000000     H
    H   1.0     0.660493    -0.003715     0.452386  Biso 1.000000     H
    H   1.0     0.484729     0.005958     0.280671  Biso 1.000000     H
    H   1.0     0.984268    -0.003584     0.281078  Biso 1.000000     H
    H   1.0     0.464192     0.034913     0.034356  Biso 1.000000     H
    H   1.0     0.964682    -0.044940     0.034165  Biso 1.000000     H
    H   1.0     0.478315     0.023678     0.877710  Biso 1.000000     H
    H   1.0     0.978795    -0.036967     0.877141  Biso 1.000000     H
    H   1.0     0.150831     0.023504     0.904341  Biso 1.000000     H
    H   1.0     0.654384    -0.002338     0.904587  Biso 1.000000     H
    H   1.0     0.143965     0.017223     0.062204  Biso 1.000000     H
    H   1.0     0.647428     0.006642     0.062185  Biso 1.000000     H
    H   1.0     0.426369     0.500028     0.690459  Biso 1.000000     H
    H   1.0     0.926447     0.500904     0.688256  Biso 1.000000     H
    H   1.0     0.215475     0.499094     0.659273  Biso 1.000000     H
    H   1.0     0.715482     0.499552     0.657681  Biso 1.000000     H
    H   1.0     0.397649     0.249372     0.444503  Biso 1.000000     H
    H   1.0     0.897128     0.247664     0.437953  Biso 1.000000     H
    H   1.0     0.046597     0.292396     0.220716  Biso 1.000000     H
    H   1.0     0.544577     0.289864     0.222853  Biso 1.000000     H
    H   1.0     0.481165     0.163294     0.220765  Biso 1.000000     H
    H   1.0     0.983537     0.165518     0.215297  Biso 1.000000     H
    H   1.0     0.183144     0.375128     0.209232  Biso 1.000000     H
    H   1.0     0.681850     0.372957     0.207481  Biso 1.000000     H
    H   1.0     0.244219     0.245611     0.213935  Biso 1.000000     H
    H   1.0     0.742748     0.243062     0.210661  Biso 1.000000     H
    H   1.0     0.458815     0.378144     0.445385  Biso 1.000000     H
    H   1.0     0.957862     0.376874     0.442217  Biso 1.000000     H
    H   1.0     0.162850     0.170935     0.443451  Biso 1.000000     H
    H   1.0     0.662960     0.167929     0.441170  Biso 1.000000     H
    H   1.0     0.098379     0.296167     0.435627  Biso 1.000000     H
    H   1.0     0.598418     0.292991     0.434572  Biso 1.000000     H
    H   1.0     0.397981     0.752577     0.440414  Biso 1.000000     H
    H   1.0     0.897450     0.750556     0.443986  Biso 1.000000     H
    H   1.0     0.045191     0.710635     0.223331  Biso 1.000000     H
    H   1.0     0.546397     0.707774     0.221673  Biso 1.000000     H
    H   1.0     0.483371     0.834614     0.216888  Biso 1.000000     H
    H   1.0     0.981782     0.837268     0.221186  Biso 1.000000     H
    H   1.0     0.183113     0.626478     0.209743  Biso 1.000000     H
    H   1.0     0.683834     0.624050     0.209830  Biso 1.000000     H
    H   1.0     0.243865     0.756511     0.213734  Biso 1.000000     H
    H   1.0     0.744855     0.753636     0.214381  Biso 1.000000     H
    H   1.0     0.458678     0.623374     0.444000  Biso 1.000000     H
    H   1.0     0.958479     0.621671     0.444795  Biso 1.000000     H
    H   1.0     0.161964     0.832157     0.442601  Biso 1.000000     H
    H   1.0     0.662713     0.829302     0.443080  Biso 1.000000     H
    H   1.0     0.097575     0.707082     0.434993  Biso 1.000000     H
    H   1.0     0.598272     0.704134     0.435237  Biso 1.000000     H
    H   1.0     0.420247    -0.003477     0.704330  Biso 1.000000     H
    H   1.0     0.919715     0.005134     0.703703  Biso 1.000000     H
    H   1.0     0.232343    -0.001529     0.563816  Biso 1.000000     H
    H   1.0     0.732118    -0.001148     0.562462  Biso 1.000000     H
    H   1.0     0.410910    -0.001742     0.548191  Biso 1.000000     H
    H   1.0     0.910651     0.004858     0.547446  Biso 1.000000     H
    H   1.0     0.234814    -0.001393     0.720285  Biso 1.000000     H
    H   1.0     0.734328    -0.002812     0.718955  Biso 1.000000     H
    H   1.0     0.239335     0.106508     0.966414  Biso 1.000000     H
    H   1.0     0.737127    -0.105661     0.965948  Biso 1.000000     H
    H   1.0     0.254442     0.097387     0.123356  Biso 1.000000     H
    H   1.0     0.752690    -0.096644     0.122752  Biso 1.000000     H
    H   1.0     0.376750    -0.090187     0.096360  Biso 1.000000     H
    H   1.0     0.878609     0.085632     0.094742  Biso 1.000000     H
    H   1.0     0.368311    -0.087412     0.938383  Biso 1.000000     H
    H   1.0     0.869908     0.082493     0.936840  Biso 1.000000     H
    H   1.0     0.176902     0.501123     0.312049  Biso 1.000000     H
    H   1.0     0.676879     0.498547     0.311070  Biso 1.000000     H
    H   1.0     0.465960     0.499754     0.342702  Biso 1.000000     H
    H   1.0     0.965810     0.500453     0.341485  Biso 1.000000     H
    C   1.0     0.456471     0.801002     0.674602  Biso 1.000000     C
    C   1.0     0.955234     0.802558     0.672618  Biso 1.000000     C
    C   1.0     0.495063     0.876696     0.670385  Biso 1.000000     C
    C   1.0     0.993543     0.878373     0.668586  Biso 1.000000     C
    C   1.0     0.185086     0.800686     0.668225  Biso 1.000000     C
    C   1.0     0.685779     0.802020     0.670908  Biso 1.000000     C
    C   1.0     0.146688     0.876589     0.669416  Biso 1.000000     C
    C   1.0     0.647674     0.878127     0.673263  Biso 1.000000     C
    C   1.0     0.255593     0.655615     0.667487  Biso 1.000000     C
    C   1.0     0.755518     0.656292     0.667776  Biso 1.000000     C
    C   1.0     0.385733     0.656239     0.680133  Biso 1.000000     C
    C   1.0     0.885467     0.657037     0.678170  Biso 1.000000     C
    C   1.0     0.350958     0.577576     0.680174  Biso 1.000000     C
    C   1.0     0.850910     0.578280     0.678379  Biso 1.000000     C
    C   1.0     0.290581     0.577288     0.669150  Biso 1.000000     C
    C   1.0     0.790478     0.577944     0.667999  Biso 1.000000     C
    C   1.0     0.179498     0.739860     0.605236  Biso 1.000000     C
    C   1.0     0.679057     0.741491     0.607866  Biso 1.000000     C
    C   1.0     0.261487     0.717515     0.730104  Biso 1.000000     C
    C   1.0     0.762529     0.717952     0.730398  Biso 1.000000     C
    C   1.0     0.226099     0.788319     0.731268  Biso 1.000000     C
    C   1.0     0.727583     0.789195     0.732742  Biso 1.000000     C
    C   1.0     0.426326     0.671781     0.743314  Biso 1.000000     C
    C   1.0     0.927092     0.671773     0.740076  Biso 1.000000     C
    C   1.0     0.460489     0.744130     0.741526  Biso 1.000000     C
    C   1.0     0.960838     0.744472     0.738269  Biso 1.000000     C
    C   1.0     0.213781     0.667757     0.605345  Biso 1.000000     C
    C   1.0     0.712988     0.669043     0.606803  Biso 1.000000     C
    C   1.0     0.416498     0.785443     0.610908  Biso 1.000000     C
    C   1.0     0.914244     0.787868     0.610140  Biso 1.000000     C
    C   1.0     0.380806     0.715004     0.614576  Biso 1.000000     C
    C   1.0     0.879068     0.716899     0.613870  Biso 1.000000     C
    C   1.0     0.456180     0.198079     0.672670  Biso 1.000000     C
    C   1.0     0.957125     0.199630     0.671684  Biso 1.000000     C
    C   1.0     0.494325     0.122086     0.668329  Biso 1.000000     C
    C   1.0     0.995515     0.123800     0.667717  Biso 1.000000     C
    C   1.0     0.186891     0.196377     0.671771  Biso 1.000000     C
    C   1.0     0.686649     0.197717     0.667707  Biso 1.000000     C
    C   1.0     0.148714     0.120280     0.674213  Biso 1.000000     C
    C   1.0     0.648357     0.121738     0.669887  Biso 1.000000     C
    C   1.0     0.256211     0.342713     0.669014  Biso 1.000000     C
    C   1.0     0.756454     0.343465     0.665787  Biso 1.000000     C
    C   1.0     0.386188     0.343384     0.679189  Biso 1.000000     C
    C   1.0     0.886456     0.344278     0.677390  Biso 1.000000     C
    C   1.0     0.351265     0.421801     0.679987  Biso 1.000000     C
    C   1.0     0.851400     0.422591     0.677812  Biso 1.000000     C
    C   1.0     0.290823     0.421471     0.669561  Biso 1.000000     C
    C   1.0     0.791007     0.422207     0.667090  Biso 1.000000     C
    C   1.0     0.180213     0.256800     0.608646  Biso 1.000000     C
    C   1.0     0.680655     0.258029     0.604356  Biso 1.000000     C
    C   1.0     0.263286     0.281048     0.731602  Biso 1.000000     C
    C   1.0     0.762839     0.281988     0.728679  Biso 1.000000     C
    C   1.0     0.228559     0.209532     0.733753  Biso 1.000000     C
    C   1.0     0.727801     0.210829     0.730412  Biso 1.000000     C
    C   1.0     0.428039     0.328587     0.740759  Biso 1.000000     C
    C   1.0     0.927215     0.328952     0.740369  Biso 1.000000     C
    C   1.0     0.461906     0.256014     0.738471  Biso 1.000000     C
    C   1.0     0.961358     0.256623     0.738499  Biso 1.000000     C
    C   1.0     0.213897     0.329538     0.607797  Biso 1.000000     C
    C   1.0     0.714590     0.330501     0.603892  Biso 1.000000     C
    C   1.0     0.415070     0.212951     0.610417  Biso 1.000000     C
    C   1.0     0.917146     0.215143     0.608013  Biso 1.000000     C
    C   1.0     0.379806     0.283789     0.614604  Biso 1.000000     C
    C   1.0     0.881446     0.285537     0.611814  Biso 1.000000     C
    C   1.0     0.053293    -0.013292     0.059043  Biso 1.000000     C
    C   1.0     0.554748     0.019232     0.059240  Biso 1.000000     C
    C   1.0     0.127744     0.001694     0.325776  Biso 1.000000     C
    C   1.0     0.628008    -0.001342     0.326165  Biso 1.000000     C
    C   1.0     0.022703    -0.002303     0.403891  Biso 1.000000     C
    C   1.0     0.522777     0.003413     0.403684  Biso 1.000000     C
    C   1.0     0.122643     0.001190     0.412289  Biso 1.000000     C
    C   1.0     0.622643    -0.001363     0.412635  Biso 1.000000     C
    C   1.0     0.077759    -0.000867     0.277417  Biso 1.000000     C
    C   1.0     0.578206     0.002528     0.277504  Biso 1.000000     C
    C   1.0     0.023924    -0.002738     0.317182  Biso 1.000000     C
    C   1.0     0.524275     0.004580     0.316968  Biso 1.000000     C
    C   1.0     0.006278    -0.029218     0.006874  Biso 1.000000     C
    C   1.0     0.506676     0.025744     0.007129  Biso 1.000000     C
    C   1.0     0.013841    -0.024647     0.920669  Biso 1.000000     C
    C   1.0     0.514306     0.019478     0.921067  Biso 1.000000     C
    C   1.0     0.110604     0.008952     0.936301  Biso 1.000000     C
    C   1.0     0.613221     0.004857     0.936490  Biso 1.000000     C
    C   1.0     0.106748     0.005736     0.022690  Biso 1.000000     C
    C   1.0     0.609359     0.009794     0.022857  Biso 1.000000     C
    C   1.0     0.379575     0.499808     0.685930  Biso 1.000000     C
    C   1.0     0.879649     0.500607     0.683829  Biso 1.000000     C
    C   1.0     0.262254     0.499245     0.663844  Biso 1.000000     C
    C   1.0     0.762267     0.499899     0.662081  Biso 1.000000     C
    C   1.0     0.207054     0.199954     0.328650  Biso 1.000000     C
    C   1.0     0.706728     0.197517     0.326081  Biso 1.000000     C
    C   1.0     0.245184     0.123984     0.332995  Biso 1.000000     C
    C   1.0     0.745460     0.122090     0.330071  Biso 1.000000     C
    C   1.0     0.435836     0.197988     0.333318  Biso 1.000000     C
    C   1.0     0.936715     0.198187     0.326991  Biso 1.000000     C
    C   1.0     0.397578     0.122042     0.332170  Biso 1.000000     C
    C   1.0     0.898572     0.122059     0.323885  Biso 1.000000     C
    C   1.0     0.006514     0.344048     0.331502  Biso 1.000000     C
    C   1.0     0.506003     0.343224     0.333973  Biso 1.000000     C
    C   1.0     0.136600     0.344712     0.322226  Biso 1.000000     C
    C   1.0     0.636117     0.342362     0.321149  Biso 1.000000     C
    C   1.0     0.101663     0.423082     0.321574  Biso 1.000000     C
    C   1.0     0.601414     0.421064     0.321399  Biso 1.000000     C
    C   1.0     0.041186     0.422737     0.331597  Biso 1.000000     C
    C   1.0     0.541018     0.421494     0.332479  Biso 1.000000     C
    C   1.0     0.429875     0.258875     0.396194  Biso 1.000000     C
    C   1.0     0.929900     0.258163     0.390586  Biso 1.000000     C
    C   1.0     0.013721     0.282888     0.268413  Biso 1.000000     C
    C   1.0     0.512246     0.281234     0.271495  Biso 1.000000     C
    C   1.0     0.477053     0.210212     0.270324  Biso 1.000000     C
    C   1.0     0.978744     0.211650     0.265442  Biso 1.000000     C
    C   1.0     0.178209     0.329821     0.260173  Biso 1.000000     C
    C   1.0     0.677284     0.327552     0.258411  Biso 1.000000     C
    C   1.0     0.212318     0.257515     0.262486  Biso 1.000000     C
    C   1.0     0.711435     0.255233     0.259936  Biso 1.000000     C
    C   1.0     0.464015     0.331116     0.396040  Biso 1.000000     C
    C   1.0     0.963818     0.330634     0.392325  Biso 1.000000     C
    C   1.0     0.166194     0.215014     0.391395  Biso 1.000000     C
    C   1.0     0.666083     0.212195     0.389237  Biso 1.000000     C
    C   1.0     0.130679     0.285559     0.387286  Biso 1.000000     C
    C   1.0     0.630498     0.282741     0.385850  Biso 1.000000     C
    C   1.0     0.206756     0.802377     0.328281  Biso 1.000000     C
    C   1.0     0.707280     0.799838     0.328631  Biso 1.000000     C
    C   1.0     0.245298     0.877992     0.332508  Biso 1.000000     C
    C   1.0     0.745228     0.875995     0.332874  Biso 1.000000     C
    C   1.0     0.436975     0.802003     0.328953  Biso 1.000000     C
    C   1.0     0.936044     0.802252     0.333254  Biso 1.000000     C
    C   1.0     0.398659     0.877977     0.325838  Biso 1.000000     C
    C   1.0     0.897651     0.878053     0.332012  Biso 1.000000     C
    C   1.0     0.006117     0.656892     0.333885  Biso 1.000000     C
    C   1.0     0.506772     0.656080     0.332770  Biso 1.000000     C
    C   1.0     0.136287     0.657423     0.322397  Biso 1.000000     C
    C   1.0     0.636852     0.655049     0.322316  Biso 1.000000     C
    C   1.0     0.101500     0.578819     0.321983  Biso 1.000000     C
    C   1.0     0.601802     0.576804     0.321678  Biso 1.000000     C
    C   1.0     0.041045     0.578532     0.332390  Biso 1.000000     C
    C   1.0     0.541368     0.577297     0.332336  Biso 1.000000     C
    C   1.0     0.430492     0.742080     0.392659  Biso 1.000000     C
    C   1.0     0.929818     0.741160     0.395854  Biso 1.000000     C
    C   1.0     0.012657     0.719113     0.271717  Biso 1.000000     C
    C   1.0     0.513726     0.717265     0.269674  Biso 1.000000     C
    C   1.0     0.478768     0.788499     0.267059  Biso 1.000000     C
    C   1.0     0.977485     0.790179     0.270538  Biso 1.000000     C
    C   1.0     0.178047     0.672039     0.260456  Biso 1.000000     C
    C   1.0     0.678703     0.669615     0.260526  Biso 1.000000     C
    C   1.0     0.212116     0.744421     0.262426  Biso 1.000000     C
    C   1.0     0.712795     0.741949     0.262759  Biso 1.000000     C
    C   1.0     0.464415     0.669589     0.394049  Biso 1.000000     C
    C   1.0     0.963899     0.668867     0.395678  Biso 1.000000     C
    C   1.0     0.165601     0.787826     0.390764  Biso 1.000000     C
    C   1.0     0.666241     0.785047     0.391179  Biso 1.000000     C
    C   1.0     0.130091     0.717209     0.386866  Biso 1.000000     C
    C   1.0     0.630737     0.714496     0.387094  Biso 1.000000     C
    C   1.0     0.303501     0.010928     0.941380  Biso 1.000000     C
    C   1.0     0.803153    -0.012925     0.940376  Biso 1.000000     C
    C   1.0     0.378279    -0.002520     0.674494  Biso 1.000000     C
    C   1.0     0.877826     0.003211     0.673668  Biso 1.000000     C
    C   1.0     0.273033    -0.001350     0.597284  Biso 1.000000     C
    C   1.0     0.772735    -0.000349     0.596107  Biso 1.000000     C
    C   1.0     0.372979    -0.001742     0.588000  Biso 1.000000     C
    C   1.0     0.872685     0.003304     0.587158  Biso 1.000000     C
    C   1.0     0.328390    -0.001411     0.723233  Biso 1.000000     C
    C   1.0     0.827883     0.000032     0.722219  Biso 1.000000     C
    C   1.0     0.274451    -0.000993     0.684001  Biso 1.000000     C
    C   1.0     0.774012    -0.001583     0.682808  Biso 1.000000     C
    C   1.0     0.270233     0.062611     0.993471  Biso 1.000000     C
    C   1.0     0.768995    -0.063072     0.992720  Biso 1.000000     C
    C   1.0     0.278337     0.058050     0.079387  Biso 1.000000     C
    C   1.0     0.777311    -0.058480     0.078633  Biso 1.000000     C
    C   1.0     0.347486    -0.047248     0.064196  Biso 1.000000     C
    C   1.0     0.848481     0.043767     0.062870  Biso 1.000000     C
    C   1.0     0.342733    -0.045592     0.977694  Biso 1.000000     C
    C   1.0     0.843578     0.041965     0.976406  Biso 1.000000     C
    C   1.0     0.130082     0.501021     0.316186  Biso 1.000000     C
    C   1.0     0.630080     0.498794     0.315668  Biso 1.000000     C
    C   1.0     0.012635     0.500530     0.337303  Biso 1.000000     C
    C   1.0     0.512742     0.499557     0.338033  Biso 1.000000     C
    N   1.0     0.071090    -0.000436     0.450852  Biso 1.000000     N
    N   1.0     0.570994     0.000562     0.450955  Biso 1.000000     N
    N   1.0     0.086676     0.001250     0.189967  Biso 1.000000     N
    N   1.0     0.587265     0.000795     0.190046  Biso 1.000000     N
    N   1.0     0.065047    -0.005628     0.885921  Biso 1.000000     N
    N   1.0     0.566604     0.008749     0.886272  Biso 1.000000     N
    N   1.0     0.042699    -0.018128     0.146600  Biso 1.000000     N
    N   1.0     0.544106     0.023842     0.146741  Biso 1.000000     N
    N   1.0     0.321340    -0.001413     0.549906  Biso 1.000000     N
    N   1.0     0.821114     0.001699     0.548925  Biso 1.000000     N
    N   1.0     0.337491    -0.002848     0.810763  Biso 1.000000     N
    N   1.0     0.836985     0.000628     0.809739  Biso 1.000000     N
    N   1.0     0.316268     0.004060     0.114295  Biso 1.000000     N
    N   1.0     0.816294    -0.005912     0.113281  Biso 1.000000     N
    N   1.0     0.293609     0.017249     0.854175  Biso 1.000000     N
    N   1.0     0.792954    -0.018731     0.853176  Biso 1.000000     N
    O   1.0     0.125525     0.901005     0.599846  Biso 1.000000     O
    O   1.0     0.627826     0.904866     0.603719  Biso 1.000000     O
    O   1.0     0.002395     0.911236     0.597106  Biso 1.000000     O
    O   1.0     0.504894     0.907707     0.598283  Biso 1.000000     O
    O   1.0     0.138067     0.911064     0.740351  Biso 1.000000     O
    O   1.0     0.637935     0.910278     0.745040  Biso 1.000000     O
    O   1.0     0.014521     0.904505     0.737753  Biso 1.000000     O
    O   1.0     0.514885     0.904535     0.739580  Biso 1.000000     O
    O   1.0     0.129692     0.092422     0.604555  Biso 1.000000     O
    O   1.0     0.627303     0.096185     0.600605  Biso 1.000000     O
    O   1.0     0.005475     0.092545     0.595728  Biso 1.000000     O
    O   1.0     0.502861     0.089145     0.596740  Biso 1.000000     O
    O   1.0     0.137866     0.089505     0.746230  Biso 1.000000     O
    O   1.0     0.639490     0.088649     0.741382  Biso 1.000000     O
    O   1.0     0.014956     0.095811     0.737023  Biso 1.000000     O
    O   1.0     0.515312     0.095721     0.737322  Biso 1.000000     O
    O   1.0     0.377766     0.095823     0.402072  Biso 1.000000     O
    O   1.0     0.877585     0.095763     0.392945  Biso 1.000000     O
    O   1.0     0.254706     0.092479     0.404767  Biso 1.000000     O
    O   1.0     0.753872     0.089099     0.401690  Biso 1.000000     O
    O   1.0     0.387641     0.089393     0.260784  Biso 1.000000     O
    O   1.0     0.889783     0.089419     0.252029  Biso 1.000000     O
    O   1.0     0.265011     0.095961     0.263690  Biso 1.000000     O
    O   1.0     0.766989     0.096281     0.261135  Biso 1.000000     O
    O   1.0     0.377571     0.904216     0.394884  Biso 1.000000     O
    O   1.0     0.877810     0.904300     0.401898  Biso 1.000000     O
    O   1.0     0.253350     0.911216     0.404113  Biso 1.000000     O
    O   1.0     0.754700     0.907636     0.404635  Biso 1.000000     O
    O   1.0     0.389890     0.910563     0.253946  Biso 1.000000     O
    O   1.0     0.887736     0.910657     0.260635  Biso 1.000000     O
    O   1.0     0.267185     0.903626     0.263762  Biso 1.000000     O
    O   1.0     0.765038     0.903981     0.263574  Biso 1.000000     O
   Zn   1.0     0.067442    -0.000272     0.579784  Biso 1.000000    Zn
   Zn   1.0     0.567302    -0.000155     0.579943  Biso 1.000000    Zn
   Zn   1.0     0.074148    -0.000225     0.756979  Biso 1.000000    Zn
   Zn   1.0     0.574814     0.000307     0.757241  Biso 1.000000    Zn
   Zn   1.0     0.317504     0.000075     0.420696  Biso 1.000000    Zn
   Zn   1.0     0.817528     0.000006     0.420006  Biso 1.000000    Zn
   Zn   1.0     0.325073    -0.000068     0.243501  Biso 1.000000    Zn
   Zn   1.0     0.825043    -0.000163     0.242791  Biso 1.000000    Zn
