#======================================================================

# CRYSTAL DATA

#----------------------------------------------------------------------

data_VESTA_phase_1


_pd_phase_name                         MOF
_cell_length_a                         22.22200
_cell_length_b                         16.16800
_cell_length_c                         15.92200
_cell_angle_alpha                      89.99800
_cell_angle_beta                       91.13600
_cell_angle_gamma                      89.99900
_symmetry_space_group_name_H-M         "P 1"
_symmetry_Int_Tables_number            1

loop_
_symmetry_equiv_pos_as_xyz
   "x, y, z"

loop_
   _atom_site_label
   _atom_site_occupancy
   _atom_site_fract_x
   _atom_site_fract_y
   _atom_site_fract_z
   _atom_site_adp_type
   _atom_site_B_iso_or_equiv
   _atom_site_type_symbol
    H   1.0     0.069354     0.836815     0.364922  Biso 1.000000     H
    H   1.0     0.569359     0.836815     0.364922  Biso 1.000000     H
    H   1.0     0.127394     0.702338     0.635146  Biso 1.000000     H
    H   1.0     0.627399     0.702339     0.635146  Biso 1.000000     H
    H   1.0     0.128187     0.704932     0.366112  Biso 1.000000     H
    H   1.0     0.628192     0.704933     0.366111  Biso 1.000000     H
    H   1.0     0.068385     0.834050     0.635044  Biso 1.000000     H
    H   1.0     0.568390     0.834050     0.635044  Biso 1.000000     H
    H   1.0     0.430646     0.836810     0.635047  Biso 1.000000     H
    H   1.0     0.930650     0.836809     0.635047  Biso 1.000000     H
    H   1.0     0.372610     0.702351     0.364824  Biso 1.000000     H
    H   1.0     0.872614     0.702351     0.364823  Biso 1.000000     H
    H   1.0     0.371814     0.704931     0.633858  Biso 1.000000     H
    H   1.0     0.871818     0.704931     0.633857  Biso 1.000000     H
    H   1.0     0.431618     0.834059     0.364925  Biso 1.000000     H
    H   1.0     0.931622     0.834060     0.364925  Biso 1.000000     H
    H   1.0     0.430650     0.163192     0.635049  Biso 1.000000     H
    H   1.0     0.930653     0.163191     0.635049  Biso 1.000000     H
    H   1.0     0.372611     0.297668     0.364825  Biso 1.000000     H
    H   1.0     0.872613     0.297668     0.364825  Biso 1.000000     H
    H   1.0     0.371817     0.295074     0.633859  Biso 1.000000     H
    H   1.0     0.871820     0.295073     0.633860  Biso 1.000000     H
    H   1.0     0.431620     0.165957     0.364927  Biso 1.000000     H
    H   1.0     0.931622     0.165956     0.364927  Biso 1.000000     H
    H   1.0     0.069357     0.163198     0.364924  Biso 1.000000     H
    H   1.0     0.569364     0.163196     0.364924  Biso 1.000000     H
    H   1.0     0.127393     0.297656     0.635147  Biso 1.000000     H
    H   1.0     0.627399     0.297655     0.635148  Biso 1.000000     H
    H   1.0     0.128189     0.295076     0.366113  Biso 1.000000     H
    H   1.0     0.628196     0.295075     0.366114  Biso 1.000000     H
    H   1.0     0.068385     0.165948     0.635046  Biso 1.000000     H
    H   1.0     0.568390     0.165947     0.635046  Biso 1.000000     H
    H   1.0     0.348880     0.499979     0.714265  Biso 1.000000     H
    H   1.0     0.848883     0.500000     0.714265  Biso 1.000000     H
    H   1.0     0.163253     0.499999     0.727372  Biso 1.000000     H
    H   1.0     0.663256     0.499999     0.727372  Biso 1.000000     H
    H   1.0     0.166871     0.499995     0.886380  Biso 1.000000     H
    H   1.0     0.666874     0.500000     0.886379  Biso 1.000000     H
    H   1.0     0.360515     0.499971     0.873255  Biso 1.000000     H
    H   1.0     0.860518     0.500000     0.873256  Biso 1.000000     H
    H   1.0     0.151125     0.500028     0.285706  Biso 1.000000     H
    H   1.0     0.651128     0.500007     0.285706  Biso 1.000000     H
    H   1.0     0.336752     0.500007     0.272600  Biso 1.000000     H
    H   1.0     0.836756     0.500008     0.272599  Biso 1.000000     H
    H   1.0     0.333134     0.500011     0.113592  Biso 1.000000     H
    H   1.0     0.833138     0.500007     0.113591  Biso 1.000000     H
    H   1.0     0.139490     0.500036     0.126715  Biso 1.000000     H
    H   1.0     0.639493     0.500006     0.126715  Biso 1.000000     H
    C   1.0     0.131097     0.695613     0.500670  Biso 1.000000     C
    C   1.0     0.631101     0.695613     0.500670  Biso 1.000000     C
    C   1.0     0.031757     0.923885     0.499787  Biso 1.000000     C
    C   1.0     0.531761     0.923884     0.499787  Biso 1.000000     C
    C   1.0     0.081655     0.806933     0.424222  Biso 1.000000     C
    C   1.0     0.581660     0.806933     0.424222  Biso 1.000000     C
    C   1.0     0.113872     0.732020     0.576350  Biso 1.000000     C
    C   1.0     0.613877     0.732020     0.576350  Biso 1.000000     C
    C   1.0     0.114327     0.733476     0.424583  Biso 1.000000     C
    C   1.0     0.614332     0.733476     0.424582  Biso 1.000000     C
    C   1.0     0.065153     0.843970     0.499945  Biso 1.000000     C
    C   1.0     0.565157     0.843970     0.499945  Biso 1.000000     C
    C   1.0     0.169567     0.619408     0.501346  Biso 1.000000     C
    C   1.0     0.669573     0.619409     0.501345  Biso 1.000000     C
    C   1.0     0.081125     0.805398     0.575997  Biso 1.000000     C
    C   1.0     0.581130     0.805398     0.575997  Biso 1.000000     C
    C   1.0     0.368905     0.695618     0.499300  Biso 1.000000     C
    C   1.0     0.868910     0.695617     0.499299  Biso 1.000000     C
    C   1.0     0.468247     0.923886     0.500182  Biso 1.000000     C
    C   1.0     0.968251     0.923886     0.500183  Biso 1.000000     C
    C   1.0     0.418346     0.806932     0.575747  Biso 1.000000     C
    C   1.0     0.918350     0.806932     0.575747  Biso 1.000000     C
    C   1.0     0.386130     0.732029     0.423620  Biso 1.000000     C
    C   1.0     0.886135     0.732029     0.423619  Biso 1.000000     C
    C   1.0     0.385674     0.733477     0.575387  Biso 1.000000     C
    C   1.0     0.885678     0.733476     0.575386  Biso 1.000000     C
    C   1.0     0.434850     0.843973     0.500024  Biso 1.000000     C
    C   1.0     0.934854     0.843973     0.500023  Biso 1.000000     C
    C   1.0     0.330436     0.619411     0.498626  Biso 1.000000     C
    C   1.0     0.830439     0.619412     0.498626  Biso 1.000000     C
    C   1.0     0.418877     0.805406     0.423973  Biso 1.000000     C
    C   1.0     0.918881     0.805405     0.423973  Biso 1.000000     C
    C   1.0     0.368908     0.304393     0.499301  Biso 1.000000     C
    C   1.0     0.868911     0.304393     0.499302  Biso 1.000000     C
    C   1.0     0.468248     0.076123     0.500184  Biso 1.000000     C
    C   1.0     0.968251     0.076122     0.500184  Biso 1.000000     C
    C   1.0     0.418350     0.193074     0.575749  Biso 1.000000     C
    C   1.0     0.918352     0.193073     0.575749  Biso 1.000000     C
    C   1.0     0.386132     0.267987     0.423621  Biso 1.000000     C
    C   1.0     0.886135     0.267986     0.423621  Biso 1.000000     C
    C   1.0     0.385677     0.266531     0.575388  Biso 1.000000     C
    C   1.0     0.885680     0.266530     0.575389  Biso 1.000000     C
    C   1.0     0.434852     0.156037     0.500026  Biso 1.000000     C
    C   1.0     0.934855     0.156037     0.500026  Biso 1.000000     C
    C   1.0     0.330437     0.380599     0.498625  Biso 1.000000     C
    C   1.0     0.830439     0.380598     0.498627  Biso 1.000000     C
    C   1.0     0.418879     0.194609     0.423974  Biso 1.000000     C
    C   1.0     0.918881     0.194608     0.423975  Biso 1.000000     C
    C   1.0     0.131098     0.304390     0.500671  Biso 1.000000     C
    C   1.0     0.631103     0.304389     0.500672  Biso 1.000000     C
    C   1.0     0.031756     0.076121     0.499789  Biso 1.000000     C
    C   1.0     0.531762     0.076121     0.499789  Biso 1.000000     C
    C   1.0     0.081657     0.193075     0.424224  Biso 1.000000     C
    C   1.0     0.581664     0.193074     0.424225  Biso 1.000000     C
    C   1.0     0.113873     0.267978     0.576351  Biso 1.000000     C
    C   1.0     0.613878     0.267977     0.576352  Biso 1.000000     C
    C   1.0     0.114330     0.266531     0.424585  Biso 1.000000     C
    C   1.0     0.614336     0.266530     0.424585  Biso 1.000000     C
    C   1.0     0.065154     0.156034     0.499947  Biso 1.000000     C
    C   1.0     0.565159     0.156033     0.499948  Biso 1.000000     C
    C   1.0     0.169568     0.380596     0.501345  Biso 1.000000     C
    C   1.0     0.669574     0.380594     0.501346  Biso 1.000000     C
    C   1.0     0.081126     0.194602     0.575998  Biso 1.000000     C
    C   1.0     0.581132     0.194601     0.575999  Biso 1.000000     C
    C   1.0     0.310197     0.499983     0.755303  Biso 1.000000     C
    C   1.0     0.810201     0.500000     0.755304  Biso 1.000000     C
    C   1.0     0.205685     0.499995     0.762940  Biso 1.000000     C
    C   1.0     0.705688     0.499999     0.762939  Biso 1.000000     C
    C   1.0     0.207798     0.499992     0.850011  Biso 1.000000     C
    C   1.0     0.707801     0.500000     0.850010  Biso 1.000000     C
    C   1.0     0.264417     0.499986     0.890771  Biso 1.000000     C
    C   1.0     0.764419     0.500001     0.890770  Biso 1.000000     C
    C   1.0     0.316339     0.499978     0.842404  Biso 1.000000     C
    C   1.0     0.816342     0.500000     0.842404  Biso 1.000000     C
    C   1.0     0.189807     0.500024     0.244666  Biso 1.000000     C
    C   1.0     0.689811     0.500007     0.244668  Biso 1.000000     C
    C   1.0     0.294320     0.500012     0.237033  Biso 1.000000     C
    C   1.0     0.794324     0.500008     0.237032  Biso 1.000000     C
    C   1.0     0.292207     0.500014     0.149961  Biso 1.000000     C
    C   1.0     0.792211     0.500007     0.149960  Biso 1.000000     C
    C   1.0     0.235589     0.500021     0.109200  Biso 1.000000     C
    C   1.0     0.735592     0.500006     0.109201  Biso 1.000000     C
    C   1.0     0.183666     0.500028     0.157567  Biso 1.000000     C
    C   1.0     0.683669     0.500007     0.157567  Biso 1.000000     C
    C   1.0     0.062085    -0.000003     0.499622  Biso 1.000000     C
    C   1.0     0.562090    -0.000003     0.499622  Biso 1.000000     C
    C   1.0     0.437917     0.000002     0.500349  Biso 1.000000     C
    C   1.0     0.937920     0.000001     0.500349  Biso 1.000000     C
    N   1.0     0.255884     0.499991     0.716460  Biso 1.000000     N
    N   1.0     0.755889     0.499999     0.716460  Biso 1.000000     N
    N   1.0     0.274195     0.499985     0.979157  Biso 1.000000     N
    N   1.0     0.774196     0.500002     0.979157  Biso 1.000000     N
    N   1.0     0.244119     0.500015     0.283511  Biso 1.000000     N
    N   1.0     0.744124     0.500008     0.283511  Biso 1.000000     N
    N   1.0     0.225813     0.500022     0.020814  Biso 1.000000     N
    N   1.0     0.725814     0.500006     0.020814  Biso 1.000000     N
    O   1.0     0.184959     0.590517     0.430414  Biso 1.000000     O
    O   1.0     0.684963     0.590516     0.430413  Biso 1.000000     O
    O   1.0     0.185206     0.590312     0.572959  Biso 1.000000     O
    O   1.0     0.685209     0.590313     0.572959  Biso 1.000000     O
    O   1.0     0.315045     0.590519     0.569559  Biso 1.000000     O
    O   1.0     0.815049     0.590517     0.569558  Biso 1.000000     O
    O   1.0     0.314799     0.590317     0.427014  Biso 1.000000     O
    O   1.0     0.814803     0.590317     0.427013  Biso 1.000000     O
    O   1.0     0.315045     0.409489     0.569558  Biso 1.000000     O
    O   1.0     0.815049     0.409491     0.569558  Biso 1.000000     O
    O   1.0     0.314798     0.409694     0.427012  Biso 1.000000     O
    O   1.0     0.814802     0.409694     0.427013  Biso 1.000000     O
    O   1.0     0.184959     0.409489     0.430412  Biso 1.000000     O
    O   1.0     0.684963     0.409490     0.430413  Biso 1.000000     O
    O   1.0     0.185205     0.409690     0.572957  Biso 1.000000     O
    O   1.0     0.685209     0.409690     0.572959  Biso 1.000000     O
   Zn   1.0     0.250217     0.500002     0.586410  Biso 1.000000    Zn
   Zn   1.0     0.750219     0.500002     0.586409  Biso 1.000000    Zn
   Zn   1.0     0.249789     0.500005     0.413561  Biso 1.000000    Zn
   Zn   1.0     0.749793     0.500005     0.413562  Biso 1.000000    Zn
   Br   1.0     0.148675    -0.000007     0.499829  Biso 1.000000    Br
   Br   1.0     0.648680    -0.000008     0.499829  Biso 1.000000    Br
   Br   1.0     0.351327     0.000007     0.500142  Biso 1.000000    Br
   Br   1.0     0.851330     0.000006     0.500142  Biso 1.000000    Br
