#======================================================================

# CRYSTAL DATA

#----------------------------------------------------------------------

data_VESTA_phase_1


_pd_phase_name                         MOF
_cell_length_a                         19.79100
_cell_length_b                         19.79200
_cell_length_c                         21.89200
_cell_angle_alpha                      89.99700
_cell_angle_beta                       90.00200
_cell_angle_gamma                      119.95300
_symmetry_space_group_name_H-M         "P 1"
_symmetry_Int_Tables_number            1

loop_
_symmetry_equiv_pos_as_xyz
   "x, y, z"

loop_
   _atom_site_label
   _atom_site_occupancy
   _atom_site_fract_x
   _atom_site_fract_y
   _atom_site_fract_z
   _atom_site_adp_type
   _atom_site_B_iso_or_equiv
   _atom_site_type_symbol
    H   1.0     0.123165     0.164187     0.816288  Biso 1.000000     H
    H   1.0     0.123166     0.664176     0.816286  Biso 1.000000     H
    H   1.0     0.623167     0.164187     0.816285  Biso 1.000000     H
    H   1.0     0.623160     0.664176     0.816287  Biso 1.000000     H
    H   1.0     0.208899     0.250528     0.634570  Biso 1.000000     H
    H   1.0     0.208896     0.750523     0.634569  Biso 1.000000     H
    H   1.0     0.708899     0.250530     0.634568  Biso 1.000000     H
    H   1.0     0.708899     0.750514     0.634570  Biso 1.000000     H
    H   1.0     0.040777     0.377001     0.482987  Biso 1.000000     H
    H   1.0     0.040769     0.876988     0.482986  Biso 1.000000     H
    H   1.0     0.540769     0.376991     0.482983  Biso 1.000000     H
    H   1.0     0.540767     0.876980     0.482984  Biso 1.000000     H
    H   1.0     0.041082     0.291111     0.301252  Biso 1.000000     H
    H   1.0     0.041089     0.791106     0.301250  Biso 1.000000     H
    H   1.0     0.541093     0.291113     0.301247  Biso 1.000000     H
    H   1.0     0.541085     0.791099     0.301248  Biso 1.000000     H
    H   1.0     0.335731     0.458984     0.149599  Biso 1.000000     H
    H   1.0     0.335726     0.958968     0.149600  Biso 1.000000     H
    H   1.0     0.835728     0.458979     0.149599  Biso 1.000000     H
    H   1.0     0.835724     0.958966     0.149600  Biso 1.000000     H
    H   1.0     0.249718     0.459006     0.967861  Biso 1.000000     H
    H   1.0     0.249724     0.959011     0.967862  Biso 1.000000     H
    H   1.0     0.749720     0.459007     0.967860  Biso 1.000000     H
    H   1.0     0.749719     0.958999     0.967861  Biso 1.000000     H
    H   1.0     0.377091     0.335874     0.316346  Biso 1.000000     H
    H   1.0     0.377084     0.835861     0.316344  Biso 1.000000     H
    H   1.0     0.877085     0.335873     0.316346  Biso 1.000000     H
    H   1.0     0.877085     0.835865     0.316347  Biso 1.000000     H
    H   1.0     0.291045     0.249657     0.134668  Biso 1.000000     H
    H   1.0     0.291044     0.749642     0.134666  Biso 1.000000     H
    H   1.0     0.791047     0.249647     0.134668  Biso 1.000000     H
    H   1.0     0.791047     0.749638     0.134670  Biso 1.000000     H
    H   1.0     0.459109     0.122857     0.983094  Biso 1.000000     H
    H   1.0     0.459099     0.622843     0.983094  Biso 1.000000     H
    H   1.0     0.959110     0.122854     0.983095  Biso 1.000000     H
    H   1.0     0.959102     0.622840     0.983096  Biso 1.000000     H
    H   1.0     0.459271     0.209072     0.801386  Biso 1.000000     H
    H   1.0     0.459266     0.709059     0.801386  Biso 1.000000     H
    H   1.0     0.959263     0.209064     0.801388  Biso 1.000000     H
    H   1.0     0.959269     0.709058     0.801388  Biso 1.000000     H
    H   1.0     0.164291     0.041246     0.649689  Biso 1.000000     H
    H   1.0     0.164289     0.541238     0.649688  Biso 1.000000     H
    H   1.0     0.664295     0.041254     0.649690  Biso 1.000000     H
    H   1.0     0.664291     0.541241     0.649690  Biso 1.000000     H
    H   1.0     0.250214     0.040843     0.467985  Biso 1.000000     H
    H   1.0     0.250212     0.540833     0.467984  Biso 1.000000     H
    H   1.0     0.750202     0.040821     0.467986  Biso 1.000000     H
    H   1.0     0.750203     0.540815     0.467987  Biso 1.000000     H
    H   1.0     0.458982     0.335697     0.850422  Biso 1.000000     H
    H   1.0     0.458966     0.835679     0.850420  Biso 1.000000     H
    H   1.0     0.958976     0.335690     0.850422  Biso 1.000000     H
    H   1.0     0.958972     0.835678     0.850423  Biso 1.000000     H
    H   1.0     0.459053     0.249720     0.032160  Biso 1.000000     H
    H   1.0     0.459057     0.749714     0.032159  Biso 1.000000     H
    H   1.0     0.959054     0.249718     0.032161  Biso 1.000000     H
    H   1.0     0.959056     0.749710     0.032162  Biso 1.000000     H
    H   1.0     0.164178     0.123172     0.183734  Biso 1.000000     H
    H   1.0     0.164178     0.623155     0.183732  Biso 1.000000     H
    H   1.0     0.664172     0.123171     0.183735  Biso 1.000000     H
    H   1.0     0.664174     0.623162     0.183735  Biso 1.000000     H
    H   1.0     0.250484     0.208901     0.365457  Biso 1.000000     H
    H   1.0     0.250477     0.708891     0.365455  Biso 1.000000     H
    H   1.0     0.750490     0.208889     0.365457  Biso 1.000000     H
    H   1.0     0.750488     0.708881     0.365458  Biso 1.000000     H
    H   1.0     0.377000     0.040832     0.517038  Biso 1.000000     H
    H   1.0     0.377000     0.540826     0.517038  Biso 1.000000     H
    H   1.0     0.876999     0.040833     0.517039  Biso 1.000000     H
    H   1.0     0.876996     0.540820     0.517039  Biso 1.000000     H
    H   1.0     0.291075     0.041064     0.698778  Biso 1.000000     H
    H   1.0     0.291069     0.541049     0.698777  Biso 1.000000     H
    H   1.0     0.791068     0.041050     0.698779  Biso 1.000000     H
    H   1.0     0.791070     0.541047     0.698779  Biso 1.000000     H
    H   1.0     0.041262     0.164338     0.350338  Biso 1.000000     H
    H   1.0     0.041260     0.664328     0.350337  Biso 1.000000     H
    H   1.0     0.541265     0.164333     0.350334  Biso 1.000000     H
    H   1.0     0.541258     0.664320     0.350335  Biso 1.000000     H
    H   1.0     0.040792     0.250218     0.532043  Biso 1.000000     H
    H   1.0     0.040790     0.750208     0.532041  Biso 1.000000     H
    H   1.0     0.540790     0.250213     0.532038  Biso 1.000000     H
    H   1.0     0.540791     0.750204     0.532039  Biso 1.000000     H
    H   1.0     0.335888     0.377085     0.683674  Biso 1.000000     H
    H   1.0     0.335892     0.877074     0.683674  Biso 1.000000     H
    H   1.0     0.835891     0.377085     0.683673  Biso 1.000000     H
    H   1.0     0.835888     0.877071     0.683675  Biso 1.000000     H
    H   1.0     0.249679     0.291053     0.865359  Biso 1.000000     H
    H   1.0     0.249671     0.791049     0.865358  Biso 1.000000     H
    H   1.0     0.749679     0.291052     0.865357  Biso 1.000000     H
    H   1.0     0.749674     0.791041     0.865359  Biso 1.000000     H
    H   1.0     0.122859     0.459060     0.016929  Biso 1.000000     H
    H   1.0     0.122856     0.959047     0.016929  Biso 1.000000     H
    H   1.0     0.622856     0.459054     0.016927  Biso 1.000000     H
    H   1.0     0.622856     0.959049     0.016927  Biso 1.000000     H
    H   1.0     0.209108     0.459295     0.198637  Biso 1.000000     H
    H   1.0     0.209112     0.959298     0.198638  Biso 1.000000     H
    H   1.0     0.709112     0.459304     0.198635  Biso 1.000000     H
    H   1.0     0.709106     0.959286     0.198636  Biso 1.000000     H
    C   1.0     0.196868     0.235686     0.736896  Biso 1.000000     C
    C   1.0     0.196867     0.735679     0.736895  Biso 1.000000     C
    C   1.0     0.696870     0.235687     0.736893  Biso 1.000000     C
    C   1.0     0.696866     0.735674     0.736895  Biso 1.000000     C
    C   1.0     0.133812     0.174351     0.767590  Biso 1.000000     C
    C   1.0     0.133812     0.674342     0.767589  Biso 1.000000     C
    C   1.0     0.633813     0.174352     0.767588  Biso 1.000000     C
    C   1.0     0.633808     0.674340     0.767590  Biso 1.000000     C
    C   1.0     0.176908     0.218788     0.674953  Biso 1.000000     C
    C   1.0     0.176906     0.718782     0.674952  Biso 1.000000     C
    C   1.0     0.676909     0.218790     0.674950  Biso 1.000000     C
    C   1.0     0.676907     0.718776     0.674952  Biso 1.000000     C
    C   1.0     0.038409     0.303188     0.403586  Biso 1.000000     C
    C   1.0     0.038408     0.803178     0.403584  Biso 1.000000     C
    C   1.0     0.538410     0.303184     0.403581  Biso 1.000000     C
    C   1.0     0.538406     0.803171     0.403582  Biso 1.000000     C
    C   1.0     0.040227     0.366324     0.434289  Biso 1.000000     C
    C   1.0     0.040222     0.866312     0.434287  Biso 1.000000     C
    C   1.0     0.540223     0.366317     0.434285  Biso 1.000000     C
    C   1.0     0.540219     0.866305     0.434285  Biso 1.000000     C
    C   1.0     0.041467     0.323171     0.341644  Biso 1.000000     C
    C   1.0     0.041471     0.823164     0.341643  Biso 1.000000     C
    C   1.0     0.541474     0.323170     0.341640  Biso 1.000000     C
    C   1.0     0.541467     0.823156     0.341640  Biso 1.000000     C
    C   1.0     0.264425     0.461599     0.070181  Biso 1.000000     C
    C   1.0     0.264426     0.961593     0.070182  Biso 1.000000     C
    C   1.0     0.764425     0.461598     0.070180  Biso 1.000000     C
    C   1.0     0.764423     0.961587     0.070181  Biso 1.000000     C
    C   1.0     0.325644     0.459589     0.100898  Biso 1.000000     C
    C   1.0     0.325642     0.959578     0.100899  Biso 1.000000     C
    C   1.0     0.825642     0.459585     0.100897  Biso 1.000000     C
    C   1.0     0.825640     0.959574     0.100898  Biso 1.000000     C
    C   1.0     0.281361     0.458549     0.008242  Biso 1.000000     C
    C   1.0     0.281365     0.958548     0.008242  Biso 1.000000     C
    C   1.0     0.781362     0.458548     0.008240  Biso 1.000000     C
    C   1.0     0.781361     0.958539     0.008242  Biso 1.000000     C
    C   1.0     0.303240     0.264436     0.236991  Biso 1.000000     C
    C   1.0     0.303236     0.764422     0.236988  Biso 1.000000     C
    C   1.0     0.803238     0.264430     0.236991  Biso 1.000000     C
    C   1.0     0.803238     0.764422     0.236992  Biso 1.000000     C
    C   1.0     0.366363     0.325735     0.267654  Biso 1.000000     C
    C   1.0     0.366358     0.825722     0.267652  Biso 1.000000     C
    C   1.0     0.866359     0.325732     0.267654  Biso 1.000000     C
    C   1.0     0.866359     0.825723     0.267655  Biso 1.000000     C
    C   1.0     0.323108     0.281364     0.175036  Biso 1.000000     C
    C   1.0     0.323106     0.781350     0.175034  Biso 1.000000     C
    C   1.0     0.823108     0.281357     0.175036  Biso 1.000000     C
    C   1.0     0.823108     0.781348     0.175038  Biso 1.000000     C
    C   1.0     0.461693     0.196819     0.903720  Biso 1.000000     C
    C   1.0     0.461685     0.696806     0.903719  Biso 1.000000     C
    C   1.0     0.961690     0.196814     0.903721  Biso 1.000000     C
    C   1.0     0.961689     0.696804     0.903721  Biso 1.000000     C
    C   1.0     0.459774     0.133618     0.934400  Biso 1.000000     C
    C   1.0     0.459766     0.633604     0.934399  Biso 1.000000     C
    C   1.0     0.959773     0.133614     0.934401  Biso 1.000000     C
    C   1.0     0.959769     0.633602     0.934401  Biso 1.000000     C
    C   1.0     0.458775     0.176937     0.841768  Biso 1.000000     C
    C   1.0     0.458769     0.676924     0.841768  Biso 1.000000     C
    C   1.0     0.958769     0.176931     0.841769  Biso 1.000000     C
    C   1.0     0.958772     0.676923     0.841770  Biso 1.000000     C
    C   1.0     0.235563     0.038470     0.570315  Biso 1.000000     C
    C   1.0     0.235561     0.538461     0.570314  Biso 1.000000     C
    C   1.0     0.735559     0.038463     0.570316  Biso 1.000000     C
    C   1.0     0.735558     0.538454     0.570316  Biso 1.000000     C
    C   1.0     0.174359     0.040543     0.600994  Biso 1.000000     C
    C   1.0     0.174357     0.540535     0.600993  Biso 1.000000     C
    C   1.0     0.674359     0.040544     0.600995  Biso 1.000000     C
    C   1.0     0.674356     0.540533     0.600995  Biso 1.000000     C
    C   1.0     0.218600     0.041400     0.508362  Biso 1.000000     C
    C   1.0     0.218598     0.541390     0.508361  Biso 1.000000     C
    C   1.0     0.718592     0.041385     0.508363  Biso 1.000000     C
    C   1.0     0.718592     0.541378     0.508363  Biso 1.000000     C
    C   1.0     0.461621     0.264406     0.929841  Biso 1.000000     C
    C   1.0     0.461614     0.764393     0.929840  Biso 1.000000     C
    C   1.0     0.961618     0.264401     0.929842  Biso 1.000000     C
    C   1.0     0.961617     0.764391     0.929842  Biso 1.000000     C
    C   1.0     0.459560     0.325596     0.899123  Biso 1.000000     C
    C   1.0     0.459549     0.825581     0.899122  Biso 1.000000     C
    C   1.0     0.959556     0.325590     0.899124  Biso 1.000000     C
    C   1.0     0.959553     0.825579     0.899125  Biso 1.000000     C
    C   1.0     0.458580     0.281345     0.991780  Biso 1.000000     C
    C   1.0     0.458579     0.781336     0.991779  Biso 1.000000     C
    C   1.0     0.958580     0.281342     0.991781  Biso 1.000000     C
    C   1.0     0.958580     0.781333     0.991782  Biso 1.000000     C
    C   1.0     0.235663     0.196874     0.263130  Biso 1.000000     C
    C   1.0     0.235660     0.696860     0.263128  Biso 1.000000     C
    C   1.0     0.735663     0.196868     0.263131  Biso 1.000000     C
    C   1.0     0.735663     0.696859     0.263132  Biso 1.000000     C
    C   1.0     0.174352     0.133802     0.232432  Biso 1.000000     C
    C   1.0     0.174350     0.633786     0.232430  Biso 1.000000     C
    C   1.0     0.674349     0.133798     0.232433  Biso 1.000000     C
    C   1.0     0.674349     0.633789     0.232434  Biso 1.000000     C
    C   1.0     0.218747     0.176918     0.325072  Biso 1.000000     C
    C   1.0     0.218741     0.676906     0.325070  Biso 1.000000     C
    C   1.0     0.718750     0.176908     0.325073  Biso 1.000000     C
    C   1.0     0.718749     0.676900     0.325074  Biso 1.000000     C
    C   1.0     0.303162     0.038417     0.596443  Biso 1.000000     C
    C   1.0     0.303160     0.538407     0.596442  Biso 1.000000     C
    C   1.0     0.803158     0.038410     0.596444  Biso 1.000000     C
    C   1.0     0.803158     0.538402     0.596444  Biso 1.000000     C
    C   1.0     0.366329     0.040294     0.565737  Biso 1.000000     C
    C   1.0     0.366328     0.540286     0.565737  Biso 1.000000     C
    C   1.0     0.866327     0.040292     0.565738  Biso 1.000000     C
    C   1.0     0.866325     0.540281     0.565738  Biso 1.000000     C
    C   1.0     0.323138     0.041455     0.658384  Biso 1.000000     C
    C   1.0     0.323134     0.541442     0.658383  Biso 1.000000     C
    C   1.0     0.823133     0.041445     0.658385  Biso 1.000000     C
    C   1.0     0.823133     0.541439     0.658386  Biso 1.000000     C
    C   1.0     0.038442     0.235582     0.429714  Biso 1.000000     C
    C   1.0     0.038440     0.735572     0.429712  Biso 1.000000     C
    C   1.0     0.538443     0.235577     0.429709  Biso 1.000000     C
    C   1.0     0.538439     0.735566     0.429710  Biso 1.000000     C
    C   1.0     0.040579     0.174415     0.399033  Biso 1.000000     C
    C   1.0     0.040577     0.674404     0.399032  Biso 1.000000     C
    C   1.0     0.540581     0.174410     0.399029  Biso 1.000000     C
    C   1.0     0.540576     0.674398     0.399030  Biso 1.000000     C
    C   1.0     0.041349     0.218605     0.491666  Biso 1.000000     C
    C   1.0     0.041347     0.718595     0.491665  Biso 1.000000     C
    C   1.0     0.541348     0.218601     0.491662  Biso 1.000000     C
    C   1.0     0.541347     0.718591     0.491663  Biso 1.000000     C
    C   1.0     0.264452     0.303240     0.763034  Biso 1.000000     C
    C   1.0     0.264450     0.803233     0.763034  Biso 1.000000     C
    C   1.0     0.764453     0.303240     0.763033  Biso 1.000000     C
    C   1.0     0.764449     0.803228     0.763035  Biso 1.000000     C
    C   1.0     0.325733     0.366375     0.732366  Biso 1.000000     C
    C   1.0     0.325734     0.866366     0.732366  Biso 1.000000     C
    C   1.0     0.825736     0.366376     0.732365  Biso 1.000000     C
    C   1.0     0.825732     0.866362     0.732367  Biso 1.000000     C
    C   1.0     0.281392     0.323105     0.824988  Biso 1.000000     C
    C   1.0     0.281387     0.823099     0.824987  Biso 1.000000     C
    C   1.0     0.781392     0.323104     0.824986  Biso 1.000000     C
    C   1.0     0.781388     0.823093     0.824988  Biso 1.000000     C
    C   1.0     0.196845     0.461691     0.096303  Biso 1.000000     C
    C   1.0     0.196846     0.961686     0.096304  Biso 1.000000     C
    C   1.0     0.696845     0.461692     0.096301  Biso 1.000000     C
    C   1.0     0.696842     0.961680     0.096303  Biso 1.000000     C
    C   1.0     0.133613     0.459713     0.065623  Biso 1.000000     C
    C   1.0     0.133612     0.959703     0.065623  Biso 1.000000     C
    C   1.0     0.633612     0.459711     0.065621  Biso 1.000000     C
    C   1.0     0.633611     0.959702     0.065622  Biso 1.000000     C
    C   1.0     0.176969     0.458792     0.158255  Biso 1.000000     C
    C   1.0     0.176971     0.958791     0.158256  Biso 1.000000     C
    C   1.0     0.676971     0.458797     0.158253  Biso 1.000000     C
    C   1.0     0.676967     0.958782     0.158254  Biso 1.000000     C
    N   1.0     0.080436     0.124743     0.726966  Biso 1.000000     N
    N   1.0     0.080436     0.624734     0.726965  Biso 1.000000     N
    N   1.0     0.580437     0.124744     0.726964  Biso 1.000000     N
    N   1.0     0.580433     0.624732     0.726966  Biso 1.000000     N
    N   1.0     0.107064     0.152920     0.669347  Biso 1.000000     N
    N   1.0     0.107062     0.652913     0.669346  Biso 1.000000     N
    N   1.0     0.607064     0.152922     0.669345  Biso 1.000000     N
    N   1.0     0.607062     0.652909     0.669347  Biso 1.000000     N
    N   1.0     0.044110     0.419792     0.393672  Biso 1.000000     N
    N   1.0     0.044107     0.919782     0.393671  Biso 1.000000     N
    N   1.0     0.544108     0.419787     0.393669  Biso 1.000000     N
    N   1.0     0.544104     0.919775     0.393669  Biso 1.000000     N
    N   1.0     0.045560     0.393111     0.336048  Biso 1.000000     N
    N   1.0     0.045562     0.893103     0.336047  Biso 1.000000     N
    N   1.0     0.545565     0.393109     0.336044  Biso 1.000000     N
    N   1.0     0.545558     0.893096     0.336045  Biso 1.000000     N
    N   1.0     0.375213     0.455654     0.060290  Biso 1.000000     N
    N   1.0     0.375211     0.955643     0.060291  Biso 1.000000     N
    N   1.0     0.875211     0.455649     0.060290  Biso 1.000000     N
    N   1.0     0.875208     0.955638     0.060291  Biso 1.000000     N
    N   1.0     0.347135     0.454299     0.000000  Biso 1.000000     N
    N   1.0     0.347136     0.954296     0.000000  Biso 1.000000     N
    N   1.0     0.847134     0.454297     0.000000  Biso 1.000000     N
    N   1.0     0.847133     0.954288     0.000000  Biso 1.000000     N
    N   1.0     0.419687     0.375346     0.227002  Biso 1.000000     N
    N   1.0     0.419683     0.875334     0.227000  Biso 1.000000     N
    N   1.0     0.919683     0.375344     0.227001  Biso 1.000000     N
    N   1.0     0.919683     0.875335     0.227002  Biso 1.000000     N
    N   1.0     0.392960     0.347214     0.169394  Biso 1.000000     N
    N   1.0     0.392957     0.847201     0.169392  Biso 1.000000     N
    N   1.0     0.892958     0.347209     0.169394  Biso 1.000000     N
    N   1.0     0.892958     0.847200     0.169395  Biso 1.000000     N
    N   1.0     0.455959     0.080206     0.893760  Biso 1.000000     N
    N   1.0     0.455951     0.580193     0.893760  Biso 1.000000     N
    N   1.0     0.955957     0.080201     0.893761  Biso 1.000000     N
    N   1.0     0.955954     0.580191     0.893761  Biso 1.000000     N
    N   1.0     0.454667     0.106994     0.836142  Biso 1.000000     N
    N   1.0     0.454661     0.606981     0.836142  Biso 1.000000     N
    N   1.0     0.954662     0.106988     0.836144  Biso 1.000000     N
    N   1.0     0.954664     0.606980     0.836144  Biso 1.000000     N
    N   1.0     0.124779     0.044409     0.560353  Biso 1.000000     N
    N   1.0     0.124778     0.544400     0.560352  Biso 1.000000     N
    N   1.0     0.624778     0.044407     0.560354  Biso 1.000000     N
    N   1.0     0.624776     0.544396     0.560355  Biso 1.000000     N
    N   1.0     0.152817     0.045626     0.502735  Biso 1.000000     N
    N   1.0     0.152815     0.545617     0.502734  Biso 1.000000     N
    N   1.0     0.652810     0.045614     0.502736  Biso 1.000000     N
    N   1.0     0.652809     0.545605     0.502736  Biso 1.000000     N
    N   1.0     0.455662     0.375181     0.939731  Biso 1.000000     N
    N   1.0     0.455655     0.875168     0.939730  Biso 1.000000     N
    N   1.0     0.955660     0.375176     0.939731  Biso 1.000000     N
    N   1.0     0.955657     0.875166     0.939732  Biso 1.000000     N
    N   1.0     0.454313     0.347116    -0.002652  Biso 1.000000     N
    N   1.0     0.454313     0.847107    -0.002653  Biso 1.000000     N
    N   1.0     0.954314     0.347113    -0.002652  Biso 1.000000     N
    N   1.0     0.954313     0.847103    -0.002651  Biso 1.000000     N
    N   1.0     0.124710     0.080447     0.273053  Biso 1.000000     N
    N   1.0     0.124707     0.580432     0.273051  Biso 1.000000     N
    N   1.0     0.624709     0.080441     0.273053  Biso 1.000000     N
    N   1.0     0.624709     0.580433     0.273054  Biso 1.000000     N
    N   1.0     0.152891     0.107062     0.330672  Biso 1.000000     N
    N   1.0     0.152886     0.607049     0.330670  Biso 1.000000     N
    N   1.0     0.652893     0.107052     0.330673  Biso 1.000000     N
    N   1.0     0.652892     0.607044     0.330673  Biso 1.000000     N
    N   1.0     0.419782     0.044136     0.606352  Biso 1.000000     N
    N   1.0     0.419780     0.544126     0.606352  Biso 1.000000     N
    N   1.0     0.919780     0.044133     0.606353  Biso 1.000000     N
    N   1.0     0.919779     0.544124     0.606353  Biso 1.000000     N
    N   1.0     0.393100     0.045587     0.663977  Biso 1.000000     N
    N   1.0     0.393096     0.545574     0.663976  Biso 1.000000     N
    N   1.0     0.893097     0.045579     0.663977  Biso 1.000000     N
    N   1.0     0.893097     0.545574     0.663978  Biso 1.000000     N
    N   1.0     0.044397     0.124810     0.439674  Biso 1.000000     N
    N   1.0     0.044394     0.624800     0.439672  Biso 1.000000     N
    N   1.0     0.544398     0.124806     0.439670  Biso 1.000000     N
    N   1.0     0.544394     0.624795     0.439672  Biso 1.000000     N
    N   1.0     0.045622     0.152850     0.497291  Biso 1.000000     N
    N   1.0     0.045620     0.652840     0.497290  Biso 1.000000     N
    N   1.0     0.545621     0.152845     0.497287  Biso 1.000000     N
    N   1.0     0.545620     0.652835     0.497288  Biso 1.000000     N
    N   1.0     0.375377     0.419677     0.773015  Biso 1.000000     N
    N   1.0     0.375377     0.919668     0.773015  Biso 1.000000     N
    N   1.0     0.875379     0.419676     0.773014  Biso 1.000000     N
    N   1.0     0.875376     0.919663     0.773016  Biso 1.000000     N
    N   1.0     0.347232     0.392966     0.830624  Biso 1.000000     N
    N   1.0     0.347228     0.892959     0.830624  Biso 1.000000     N
    N   1.0     0.847233     0.392965     0.830623  Biso 1.000000     N
    N   1.0     0.847229     0.892953     0.830625  Biso 1.000000     N
    N   1.0     0.080215     0.455936     0.106262  Biso 1.000000     N
    N   1.0     0.080215     0.955928     0.106262  Biso 1.000000     N
    N   1.0     0.580216     0.455937     0.106260  Biso 1.000000     N
    N   1.0     0.580213     0.955926     0.106261  Biso 1.000000     N
    N   1.0     0.107004     0.454645     0.163879  Biso 1.000000     N
    N   1.0     0.107005     0.954642     0.163879  Biso 1.000000     N
    N   1.0     0.607006     0.454651     0.163877  Biso 1.000000     N
    N   1.0     0.607002     0.954636     0.163878  Biso 1.000000     N
   Cd   1.0     0.454689     0.045462     0.750032  Biso 1.000000    Cd
   Cd   1.0     0.454685     0.545449     0.750032  Biso 1.000000    Cd
   Cd   1.0     0.954687     0.045457     0.750033  Biso 1.000000    Cd
   Cd   1.0     0.954687     0.545449     0.750032  Biso 1.000000    Cd
   Cd   1.0     0.091129     0.045644     0.416716  Biso 1.000000    Cd
   Cd   1.0     0.091126     0.545633     0.416715  Biso 1.000000    Cd
   Cd   1.0     0.591127     0.045637     0.416715  Biso 1.000000    Cd
   Cd   1.0     0.591126     0.545627     0.416715  Biso 1.000000    Cd
   Cd   1.0     0.454332     0.408895     0.083316  Biso 1.000000    Cd
   Cd   1.0     0.454330     0.908884     0.083316  Biso 1.000000    Cd
   Cd   1.0     0.954330     0.408890     0.083317  Biso 1.000000    Cd
   Cd   1.0     0.954329     0.908881     0.083317  Biso 1.000000    Cd
   Cd   1.0     0.045451     0.454680     0.249980  Biso 1.000000    Cd
   Cd   1.0     0.045451     0.954673     0.249980  Biso 1.000000    Cd
   Cd   1.0     0.545453     0.454681     0.249979  Biso 1.000000    Cd
   Cd   1.0     0.545448     0.954668     0.249979  Biso 1.000000    Cd
   Cd   1.0     0.408920     0.454322     0.916704  Biso 1.000000    Cd
   Cd   1.0     0.408919     0.954313     0.916704  Biso 1.000000    Cd
   Cd   1.0     0.908921     0.454319     0.916704  Biso 1.000000    Cd
   Cd   1.0     0.908918     0.954308     0.916705  Biso 1.000000    Cd
   Cd   1.0     0.045638     0.091163     0.583310  Biso 1.000000    Cd
   Cd   1.0     0.045637     0.591155     0.583309  Biso 1.000000    Cd
   Cd   1.0     0.545637     0.091163     0.583308  Biso 1.000000    Cd
   Cd   1.0     0.545635     0.591151     0.583309  Biso 1.000000    Cd
