#======================================================================

# CRYSTAL DATA

#----------------------------------------------------------------------

data_VESTA_phase_1


_pd_phase_name                         MOF
_cell_length_a                         14.77500
_cell_length_b                         18.05500
_cell_length_c                         18.05500
_cell_angle_alpha                      90.00000
_cell_angle_beta                       90.00100
_cell_angle_gamma                      90.01800
_symmetry_space_group_name_H-M         "P 1"
_symmetry_Int_Tables_number            1

loop_
_symmetry_equiv_pos_as_xyz
   "x, y, z"

loop_
   _atom_site_label
   _atom_site_occupancy
   _atom_site_fract_x
   _atom_site_fract_y
   _atom_site_fract_z
   _atom_site_adp_type
   _atom_site_B_iso_or_equiv
   _atom_site_type_symbol
    H   1.0     0.353590     0.174128     0.500082  Biso 1.000000     H
    H   1.0     0.353585     0.174129     0.000000  Biso 1.000000     H
    H   1.0     0.353590     0.674132     0.500082  Biso 1.000000     H
    H   1.0     0.353584     0.674132     0.000000  Biso 1.000000     H
    H   1.0     0.853601     0.174128     0.000074  Biso 1.000000     H
    H   1.0     0.853596     0.174128     0.500082  Biso 1.000000     H
    H   1.0     0.853591     0.674132     0.000000  Biso 1.000000     H
    H   1.0     0.853596     0.674132     0.500082  Biso 1.000000     H
    H   1.0     0.353577     0.325816     0.000000  Biso 1.000000     H
    H   1.0     0.353582     0.325816     0.500080  Biso 1.000000     H
    H   1.0     0.353586     0.825819     0.000072  Biso 1.000000     H
    H   1.0     0.353581     0.825819     0.500083  Biso 1.000000     H
    H   1.0     0.853593     0.325815     0.000077  Biso 1.000000     H
    H   1.0     0.853588     0.325816     0.500080  Biso 1.000000     H
    H   1.0     0.853587     0.825819     0.500083  Biso 1.000000     H
    H   1.0     0.853592     0.825819     0.000073  Biso 1.000000     H
    H   1.0     0.103577     0.000109     0.174164  Biso 1.000000     H
    H   1.0     0.103572     0.000111     0.674167  Biso 1.000000     H
    H   1.0     0.103576     0.500113     0.174164  Biso 1.000000     H
    H   1.0     0.103571     0.500109     0.674167  Biso 1.000000     H
    H   1.0     0.603584     0.000108     0.174164  Biso 1.000000     H
    H   1.0     0.603578     0.000108     0.674167  Biso 1.000000     H
    H   1.0     0.603583     0.500114     0.174164  Biso 1.000000     H
    H   1.0     0.603577     0.500109     0.674167  Biso 1.000000     H
    H   1.0     0.103595     0.000111     0.325851  Biso 1.000000     H
    H   1.0     0.103589     0.000111     0.825855  Biso 1.000000     H
    H   1.0     0.103594     0.500113     0.325851  Biso 1.000000     H
    H   1.0     0.103589     0.500110     0.825855  Biso 1.000000     H
    H   1.0     0.603601     0.000113     0.325851  Biso 1.000000     H
    H   1.0     0.603595     0.000111     0.825855  Biso 1.000000     H
    H   1.0     0.603600     0.500113     0.325851  Biso 1.000000     H
    H   1.0     0.603595     0.500111     0.825855  Biso 1.000000     H
    H   1.0     0.146401     0.325876     0.999925  Biso 1.000000     H
    H   1.0     0.146406     0.325876     0.499923  Biso 1.000000     H
    H   1.0     0.146405     0.825879     0.499920  Biso 1.000000     H
    H   1.0     0.146400     0.825880     0.999929  Biso 1.000000     H
    H   1.0     0.646412     0.325876     0.499923  Biso 1.000000     H
    H   1.0     0.646417     0.325875    -0.000081  Biso 1.000000     H
    H   1.0     0.646411     0.825879     0.499919  Biso 1.000000     H
    H   1.0     0.646416     0.825879    -0.000072  Biso 1.000000     H
    H   1.0     0.146409     0.174189     0.999928  Biso 1.000000     H
    H   1.0     0.146414     0.174188     0.499921  Biso 1.000000     H
    H   1.0     0.146413     0.674191     0.499921  Biso 1.000000     H
    H   1.0     0.146408     0.674192     0.999930  Biso 1.000000     H
    H   1.0     0.646425     0.174188    -0.000078  Biso 1.000000     H
    H   1.0     0.646420     0.174188     0.499921  Biso 1.000000     H
    H   1.0     0.646419     0.674192     0.499921  Biso 1.000000     H
    H   1.0     0.646424     0.674191    -0.000076  Biso 1.000000     H
    H   1.0     0.396407    -0.000111     0.174151  Biso 1.000000     H
    H   1.0     0.396402    -0.000113     0.674155  Biso 1.000000     H
    H   1.0     0.396406     0.499888     0.174151  Biso 1.000000     H
    H   1.0     0.396401     0.499892     0.674155  Biso 1.000000     H
    H   1.0     0.896414    -0.000110     0.174151  Biso 1.000000     H
    H   1.0     0.896408    -0.000111     0.674155  Biso 1.000000     H
    H   1.0     0.896413     0.499887     0.174151  Biso 1.000000     H
    H   1.0     0.896407     0.499891     0.674155  Biso 1.000000     H
    H   1.0     0.396425    -0.000110     0.325839  Biso 1.000000     H
    H   1.0     0.396419    -0.000111     0.825843  Biso 1.000000     H
    H   1.0     0.396424     0.499891     0.325839  Biso 1.000000     H
    H   1.0     0.396419     0.499893     0.825843  Biso 1.000000     H
    H   1.0     0.896431    -0.000112     0.325839  Biso 1.000000     H
    H   1.0     0.896425    -0.000111     0.825843  Biso 1.000000     H
    H   1.0     0.896430     0.499891     0.325839  Biso 1.000000     H
    H   1.0     0.896425     0.499892     0.825843  Biso 1.000000     H
    C   1.0     0.000002     0.209712    -0.000002  Biso 1.000000     C
    C   1.0    -0.000003     0.209713     0.500001  Biso 1.000000     C
    C   1.0     0.000000     0.709716     0.000000  Biso 1.000000     C
    C   1.0     0.000000     0.709716     0.500001  Biso 1.000000     C
    C   1.0     0.500004     0.209713     0.500001  Biso 1.000000     C
    C   1.0     0.500009     0.209712    -0.000001  Biso 1.000000     C
    C   1.0     0.500003     0.709716     0.500001  Biso 1.000000     C
    C   1.0     0.500008     0.709715    -0.000001  Biso 1.000000     C
    C   1.0     1.000000     0.290292     0.000000  Biso 1.000000     C
    C   1.0     0.000000     0.290291     0.500001  Biso 1.000000     C
    C   1.0     0.999999     0.790295     0.000000  Biso 1.000000     C
    C   1.0     0.000000     0.790295     0.500001  Biso 1.000000     C
    C   1.0     0.499998     0.290291     0.500001  Biso 1.000000     C
    C   1.0     0.500003     0.290291    -0.000002  Biso 1.000000     C
    C   1.0     0.499998     0.790295     0.500001  Biso 1.000000     C
    C   1.0     0.500002     0.790294    -0.000001  Biso 1.000000     C
    C   1.0     0.249996    -0.000001     0.209712  Biso 1.000000     C
    C   1.0     0.249991    -0.000001     0.709715  Biso 1.000000     C
    C   1.0     0.249995     0.500001     0.209712  Biso 1.000000     C
    C   1.0     0.249990     0.500000     0.709715  Biso 1.000000     C
    C   1.0     0.750003    -0.000001     0.209712  Biso 1.000000     C
    C   1.0     0.749996    -0.000001     0.709715  Biso 1.000000     C
    C   1.0     0.750001     0.500001     0.209712  Biso 1.000000     C
    C   1.0     0.749996     0.500000     0.709715  Biso 1.000000     C
    C   1.0     0.250006    -0.000000     0.290291  Biso 1.000000     C
    C   1.0     0.250000    -0.000001     0.790294  Biso 1.000000     C
    C   1.0     0.250005     0.500001     0.290291  Biso 1.000000     C
    C   1.0     0.250000     0.500001     0.790294  Biso 1.000000     C
    C   1.0     0.750012    -0.000000     0.290291  Biso 1.000000     C
    C   1.0     0.750006    -0.000001     0.790294  Biso 1.000000     C
    C   1.0     0.750011     0.500001     0.290291  Biso 1.000000     C
    C   1.0     0.750006     0.500001     0.790294  Biso 1.000000     C
    C   1.0     0.425434     0.161511     0.000043  Biso 1.000000     C
    C   1.0     0.425429     0.161512     0.500048  Biso 1.000000     C
    C   1.0     0.425433     0.661514     0.000043  Biso 1.000000     C
    C   1.0     0.425428     0.661515     0.500048  Biso 1.000000     C
    C   1.0     0.925440     0.161511     0.000043  Biso 1.000000     C
    C   1.0     0.925435     0.161512     0.500048  Biso 1.000000     C
    C   1.0     0.925439     0.661514     0.000041  Biso 1.000000     C
    C   1.0     0.925434     0.661515     0.500048  Biso 1.000000     C
    C   1.0     0.425423     0.338458     0.500047  Biso 1.000000     C
    C   1.0     0.425418     0.338459     0.000000  Biso 1.000000     C
    C   1.0     0.425422     0.838461     0.500049  Biso 1.000000     C
    C   1.0     0.425417     0.838462     0.000000  Biso 1.000000     C
    C   1.0     0.925424     0.338459     0.000000  Biso 1.000000     C
    C   1.0     0.925429     0.338458     0.500047  Biso 1.000000     C
    C   1.0     0.925433     0.838461     0.000042  Biso 1.000000     C
    C   1.0     0.925428     0.838461     0.500048  Biso 1.000000     C
    C   1.0     0.175416     0.000053     0.161532  Biso 1.000000     C
    C   1.0     0.175411     0.000054     0.661535  Biso 1.000000     C
    C   1.0     0.175415     0.500056     0.161532  Biso 1.000000     C
    C   1.0     0.175410     0.500054     0.661535  Biso 1.000000     C
    C   1.0     0.675423     0.000053     0.161532  Biso 1.000000     C
    C   1.0     0.675417     0.000053     0.661535  Biso 1.000000     C
    C   1.0     0.675422     0.500057     0.161532  Biso 1.000000     C
    C   1.0     0.675416     0.500055     0.661535  Biso 1.000000     C
    C   1.0     0.175436     0.000055     0.338478  Biso 1.000000     C
    C   1.0     0.175430     0.000055     0.838482  Biso 1.000000     C
    C   1.0     0.175434     0.500057     0.338478  Biso 1.000000     C
    C   1.0     0.175429     0.500056     0.838482  Biso 1.000000     C
    C   1.0     0.675442     0.000056     0.338478  Biso 1.000000     C
    C   1.0     0.675436     0.000055     0.838482  Biso 1.000000     C
    C   1.0     0.675441     0.500057     0.338478  Biso 1.000000     C
    C   1.0     0.675435     0.500056     0.838482  Biso 1.000000     C
    C   1.0     0.074572     0.338492    -0.000048  Biso 1.000000     C
    C   1.0     0.074567     0.338492     0.499956  Biso 1.000000     C
    C   1.0     0.074571     0.838495    -0.000046  Biso 1.000000     C
    C   1.0     0.074567     0.838496     0.499955  Biso 1.000000     C
    C   1.0     0.574569     0.338493     0.999959  Biso 1.000000     C
    C   1.0     0.574573     0.338492     0.499956  Biso 1.000000     C
    C   1.0     0.574573     0.838496     0.499954  Biso 1.000000     C
    C   1.0     0.574577     0.838495    -0.000043  Biso 1.000000     C
    C   1.0     0.074578     0.161545    -0.000046  Biso 1.000000     C
    C   1.0     0.074573     0.161546     0.499955  Biso 1.000000     C
    C   1.0     0.074572     0.661549     0.499955  Biso 1.000000     C
    C   1.0     0.074577     0.661549    -0.000045  Biso 1.000000     C
    C   1.0     0.574584     0.161545    -0.000046  Biso 1.000000     C
    C   1.0     0.574579     0.161546     0.499955  Biso 1.000000     C
    C   1.0     0.574578     0.661549     0.499955  Biso 1.000000     C
    C   1.0     0.574583     0.661549    -0.000044  Biso 1.000000     C
    C   1.0     0.324567    -0.000055     0.161525  Biso 1.000000     C
    C   1.0     0.324561    -0.000057     0.661528  Biso 1.000000     C
    C   1.0     0.324566     0.499945     0.161525  Biso 1.000000     C
    C   1.0     0.324561     0.499947     0.661528  Biso 1.000000     C
    C   1.0     0.824573    -0.000055     0.161525  Biso 1.000000     C
    C   1.0     0.824567    -0.000056     0.661528  Biso 1.000000     C
    C   1.0     0.824572     0.499945     0.161525  Biso 1.000000     C
    C   1.0     0.824567     0.499947     0.661528  Biso 1.000000     C
    C   1.0     0.324586    -0.000054     0.338471  Biso 1.000000     C
    C   1.0     0.324580    -0.000055     0.838475  Biso 1.000000     C
    C   1.0     0.324585     0.499947     0.338471  Biso 1.000000     C
    C   1.0     0.324580     0.499948     0.838475  Biso 1.000000     C
    C   1.0     0.824592    -0.000055     0.338471  Biso 1.000000     C
    C   1.0     0.824586    -0.000055     0.838475  Biso 1.000000     C
    C   1.0     0.824591     0.499947     0.338471  Biso 1.000000     C
    C   1.0     0.824586     0.499948     0.838475  Biso 1.000000     C
    N   1.0     0.453613     0.090314     0.000024  Biso 1.000000     N
    N   1.0     0.453608     0.090314     0.500028  Biso 1.000000     N
    N   1.0     0.453608     0.590318     0.500028  Biso 1.000000     N
    N   1.0     0.453612     0.590317     0.000024  Biso 1.000000     N
    N   1.0     0.953619     0.090314     0.000023  Biso 1.000000     N
    N   1.0     0.953614     0.090314     0.500028  Biso 1.000000     N
    N   1.0     0.953618     0.590317     0.000022  Biso 1.000000     N
    N   1.0     0.953614     0.590318     0.500028  Biso 1.000000     N
    N   1.0     0.453603     0.409670     0.000000  Biso 1.000000     N
    N   1.0     0.453608     0.409670     0.500027  Biso 1.000000     N
    N   1.0     0.453612     0.909673     0.000022  Biso 1.000000     N
    N   1.0     0.453607     0.909673     0.500028  Biso 1.000000     N
    N   1.0     0.953609     0.409670     0.000000  Biso 1.000000     N
    N   1.0     0.953614     0.409670     0.500027  Biso 1.000000     N
    N   1.0     0.953613     0.909673     0.500028  Biso 1.000000     N
    N   1.0     0.953618     0.909673     0.000022  Biso 1.000000     N
    N   1.0     0.203596     0.000032     0.090327  Biso 1.000000     N
    N   1.0     0.203590     0.000033     0.590330  Biso 1.000000     N
    N   1.0     0.203595     0.500036     0.090327  Biso 1.000000     N
    N   1.0     0.203590     0.500035     0.590330  Biso 1.000000     N
    N   1.0     0.703602     0.000032     0.090327  Biso 1.000000     N
    N   1.0     0.703596     0.000033     0.590330  Biso 1.000000     N
    N   1.0     0.703601     0.500036     0.090327  Biso 1.000000     N
    N   1.0     0.703596     0.500035     0.590330  Biso 1.000000     N
    N   1.0     0.203621     0.000035     0.409682  Biso 1.000000     N
    N   1.0     0.203615     0.000035     0.909686  Biso 1.000000     N
    N   1.0     0.203619     0.500038     0.409682  Biso 1.000000     N
    N   1.0     0.203614     0.500037     0.909686  Biso 1.000000     N
    N   1.0     0.703627     0.000035     0.409682  Biso 1.000000     N
    N   1.0     0.703621     0.000035     0.909686  Biso 1.000000     N
    N   1.0     0.703626     0.500038     0.409682  Biso 1.000000     N
    N   1.0     0.703620     0.500037     0.909686  Biso 1.000000     N
    N   1.0     0.046383     0.409690     0.999980  Biso 1.000000     N
    N   1.0     0.046387     0.409690     0.499977  Biso 1.000000     N
    N   1.0     0.046387     0.909693     0.499977  Biso 1.000000     N
    N   1.0     0.046382     0.909694     0.999982  Biso 1.000000     N
    N   1.0     0.546399     0.409689    -0.000026  Biso 1.000000     N
    N   1.0     0.546394     0.409690     0.499977  Biso 1.000000     N
    N   1.0     0.546398     0.909693    -0.000023  Biso 1.000000     N
    N   1.0     0.546393     0.909693     0.499976  Biso 1.000000     N
    N   1.0     0.046383     0.090335     0.999982  Biso 1.000000     N
    N   1.0     0.046388     0.090334     0.499977  Biso 1.000000     N
    N   1.0     0.046387     0.590337     0.499977  Biso 1.000000     N
    N   1.0     0.046382     0.590338     0.999982  Biso 1.000000     N
    N   1.0     0.546399     0.090334    -0.000025  Biso 1.000000     N
    N   1.0     0.546394     0.090334     0.499977  Biso 1.000000     N
    N   1.0     0.546398     0.590337    -0.000024  Biso 1.000000     N
    N   1.0     0.546393     0.590337     0.499977  Biso 1.000000     N
    N   1.0     0.296382    -0.000035     0.090321  Biso 1.000000     N
    N   1.0     0.296376    -0.000035     0.590324  Biso 1.000000     N
    N   1.0     0.296381     0.499967     0.090321  Biso 1.000000     N
    N   1.0     0.296376     0.499968     0.590324  Biso 1.000000     N
    N   1.0     0.796388    -0.000034     0.090321  Biso 1.000000     N
    N   1.0     0.796382    -0.000035     0.590324  Biso 1.000000     N
    N   1.0     0.796387     0.499967     0.090321  Biso 1.000000     N
    N   1.0     0.796382     0.499968     0.590324  Biso 1.000000     N
    N   1.0     0.296406    -0.000033     0.409676  Biso 1.000000     N
    N   1.0     0.296401    -0.000033     0.909680  Biso 1.000000     N
    N   1.0     0.296405     0.499970     0.409676  Biso 1.000000     N
    N   1.0     0.296400     0.499970     0.909680  Biso 1.000000     N
    N   1.0     0.796413    -0.000033     0.409676  Biso 1.000000     N
    N   1.0     0.796407    -0.000033     0.909680  Biso 1.000000     N
    N   1.0     0.796411     0.499970     0.409676  Biso 1.000000     N
    N   1.0     0.796406     0.499970     0.909680  Biso 1.000000     N
   Zn   1.0     0.374995    -0.000017     0.000000  Biso 1.000000    Zn
   Zn   1.0     0.375000    -0.000018     0.500006  Biso 1.000000    Zn
   Zn   1.0     0.374999     0.499986     0.500006  Biso 1.000000    Zn
   Zn   1.0     0.374994     0.499986     0.000000  Biso 1.000000    Zn
   Zn   1.0     0.875011    -0.000018     0.000003  Biso 1.000000    Zn
   Zn   1.0     0.875006    -0.000018     0.500006  Biso 1.000000    Zn
   Zn   1.0     0.875005     0.499986     0.500006  Biso 1.000000    Zn
   Zn   1.0     0.875010     0.499985     0.000003  Biso 1.000000    Zn
   Zn   1.0     0.125002     0.000018    -0.000003  Biso 1.000000    Zn
   Zn   1.0     0.124997     0.000018     0.500000  Biso 1.000000    Zn
   Zn   1.0     0.124991     0.500022     0.000000  Biso 1.000000    Zn
   Zn   1.0     0.124996     0.500022     0.500000  Biso 1.000000    Zn
   Zn   1.0     0.625008     0.000018    -0.000003  Biso 1.000000    Zn
   Zn   1.0     0.625003     0.000018     0.500000  Biso 1.000000    Zn
   Zn   1.0     0.625007     0.500021    -0.000003  Biso 1.000000    Zn
   Zn   1.0     0.625002     0.500022     0.500000  Biso 1.000000    Zn
