#======================================================================

# CRYSTAL DATA

#----------------------------------------------------------------------

data_VESTA_phase_1


_pd_phase_name                         MOF
_cell_length_a                         13.31500
_cell_length_b                         14.53700
_cell_length_c                         14.53700
_cell_angle_alpha                      89.98000
_cell_angle_beta                       90.00100
_cell_angle_gamma                      90.01600
_symmetry_space_group_name_H-M         "P 1"
_symmetry_Int_Tables_number            1

loop_
_symmetry_equiv_pos_as_xyz
   "x, y, z"

loop_
   _atom_site_label
   _atom_site_occupancy
   _atom_site_fract_x
   _atom_site_fract_y
   _atom_site_fract_z
   _atom_site_adp_type
   _atom_site_B_iso_or_equiv
   _atom_site_type_symbol
    H   1.0     0.983412     0.191618     0.195706  Biso 1.000000     H
    H   1.0     0.860950     0.093564     0.283671  Biso 1.000000     H
    H   1.0     0.617482     0.259256     0.176712  Biso 1.000000     H
    H   1.0     0.739766     0.352687     0.089254  Biso 1.000000     H
    H   1.0     0.566947     0.070595     0.167687  Biso 1.000000     H
    H   1.0     0.777240     0.084199     0.465907  Biso 1.000000     H
    H   1.0     0.757727     0.196686     0.422845  Biso 1.000000     H
    H   1.0     0.673321     0.150924     0.507222  Biso 1.000000     H
    H   1.0     0.983410     0.808321     0.804327  Biso 1.000000     H
    H   1.0     0.861029     0.906401     0.716368  Biso 1.000000     H
    H   1.0     0.617430     0.740741     0.823314  Biso 1.000000     H
    H   1.0     0.739635     0.647274     0.910749  Biso 1.000000     H
    H   1.0     0.567062     0.929387     0.832393  Biso 1.000000     H
    H   1.0     0.777247     0.915876     0.534130  Biso 1.000000     H
    H   1.0     0.757696     0.803372     0.577159  Biso 1.000000     H
    H   1.0     0.673285     0.849147     0.492813  Biso 1.000000     H
    H   1.0     0.483583     0.691496     0.304926  Biso 1.000000     H
    H   1.0     0.361417     0.593135     0.216978  Biso 1.000000     H
    H   1.0     0.117552     0.758983     0.322785  Biso 1.000000     H
    H   1.0     0.239524     0.852788     0.410141  Biso 1.000000     H
    H   1.0     0.067764     0.569487     0.332448  Biso 1.000000     H
    H   1.0     0.277308     0.584492     0.033830  Biso 1.000000     H
    H   1.0     0.257868     0.696748     0.077434  Biso 1.000000     H
    H   1.0     0.173269     0.651382    -0.006987  Biso 1.000000     H
    H   1.0     0.483595     0.308456     0.695114  Biso 1.000000     H
    H   1.0     0.361514     0.406838     0.783056  Biso 1.000000     H
    H   1.0     0.117512     0.241039     0.677234  Biso 1.000000     H
    H   1.0     0.239403     0.147201     0.589901  Biso 1.000000     H
    H   1.0     0.067908     0.430533     0.667535  Biso 1.000000     H
    H   1.0     0.277320     0.415543     0.966220  Biso 1.000000     H
    H   1.0     0.257834     0.303281     0.922619  Biso 1.000000     H
    H   1.0     0.173229     0.348649     0.000000  Biso 1.000000     H
    H   1.0     0.983397     0.804439     0.191777  Biso 1.000000     H
    H   1.0     0.861046     0.716460     0.093684  Biso 1.000000     H
    H   1.0     0.617413     0.823177     0.259275  Biso 1.000000     H
    H   1.0     0.739591     0.910647     0.352744  Biso 1.000000     H
    H   1.0     0.567016     0.832320     0.070648  Biso 1.000000     H
    H   1.0     0.777397     0.534206     0.084136  Biso 1.000000     H
    H   1.0     0.757844     0.577127     0.196646  Biso 1.000000     H
    H   1.0     0.673477     0.492754     0.150855  Biso 1.000000     H
    H   1.0     0.983355     0.195666     0.808199  Biso 1.000000     H
    H   1.0     0.861056     0.283673     0.906257  Biso 1.000000     H
    H   1.0     0.617360     0.176845     0.740725  Biso 1.000000     H
    H   1.0     0.739489     0.089363     0.647281  Biso 1.000000     H
    H   1.0     0.567024     0.167723     0.929374  Biso 1.000000     H
    H   1.0     0.777374     0.465976     0.915726  Biso 1.000000     H
    H   1.0     0.757828     0.422946     0.803254  Biso 1.000000     H
    H   1.0     0.673446     0.507299     0.848981  Biso 1.000000     H
    H   1.0     0.483661     0.304857     0.308643  Biso 1.000000     H
    H   1.0     0.361416     0.216958     0.407022  Biso 1.000000     H
    H   1.0     0.117641     0.322912     0.241059  Biso 1.000000     H
    H   1.0     0.239687     0.410218     0.147234  Biso 1.000000     H
    H   1.0     0.067856     0.332532     0.430575  Biso 1.000000     H
    H   1.0     0.277179     0.033865     0.415643  Biso 1.000000     H
    H   1.0     0.257727     0.077499     0.303365  Biso 1.000000     H
    H   1.0     0.173089    -0.006910     0.348770  Biso 1.000000     H
    H   1.0     0.483616     0.695221     0.691424  Biso 1.000000     H
    H   1.0     0.361418     0.783150     0.593078  Biso 1.000000     H
    H   1.0     0.117592     0.677126     0.759007  Biso 1.000000     H
    H   1.0     0.239595     0.589801     0.852807  Biso 1.000000     H
    H   1.0     0.067834     0.667520     0.569480  Biso 1.000000     H
    H   1.0     0.277163     0.966308     0.584520  Biso 1.000000     H
    H   1.0     0.257748     0.922577     0.696767  Biso 1.000000     H
    H   1.0     0.173087     0.000000     0.651435  Biso 1.000000     H
    C   1.0     0.943135     0.338066     0.086822  Biso 1.000000     C
    C   1.0     0.869033     0.277671     0.136810  Biso 1.000000     C
    C   1.0     0.903001     0.205016     0.192180  Biso 1.000000     C
    C   1.0     0.835231     0.150474     0.240872  Biso 1.000000     C
    C   1.0     0.732633     0.169832     0.233682  Biso 1.000000     C
    C   1.0     0.697084     0.241997     0.179252  Biso 1.000000     C
    C   1.0     0.765865     0.295355     0.130823  Biso 1.000000     C
    C   1.0     0.580654     0.069327     0.241131  Biso 1.000000     C
    C   1.0     0.652620     0.097568     0.374084  Biso 1.000000     C
    C   1.0     0.719185     0.134387     0.446611  Biso 1.000000     C
    C   1.0     0.943025     0.661863     0.913189  Biso 1.000000     C
    C   1.0     0.868966     0.722275     0.863213  Biso 1.000000     C
    C   1.0     0.902990     0.794923     0.807836  Biso 1.000000     C
    C   1.0     0.835261     0.849494     0.759164  Biso 1.000000     C
    C   1.0     0.732648     0.830147     0.766341  Biso 1.000000     C
    C   1.0     0.697045     0.757990     0.820775  Biso 1.000000     C
    C   1.0     0.765786     0.704597     0.869178  Biso 1.000000     C
    C   1.0     0.580746     0.930675     0.758946  Biso 1.000000     C
    C   1.0     0.652650     0.902465     0.625970  Biso 1.000000     C
    C   1.0     0.719175     0.865673     0.553419  Biso 1.000000     C
    C   1.0     0.442897     0.838222     0.413178  Biso 1.000000     C
    C   1.0     0.368972     0.777674     0.363200  Biso 1.000000     C
    C   1.0     0.403152     0.704863     0.308192  Biso 1.000000     C
    C   1.0     0.335557     0.650142     0.259534  Biso 1.000000     C
    C   1.0     0.232931     0.669472     0.266403  Biso 1.000000     C
    C   1.0     0.197178     0.741785     0.320471  Biso 1.000000     C
    C   1.0     0.265783     0.795341     0.368858  Biso 1.000000     C
    C   1.0     0.081310     0.568509     0.258975  Biso 1.000000     C
    C   1.0     0.152927     0.597357     0.125978  Biso 1.000000     C
    C   1.0     0.219285     0.634565     0.053468  Biso 1.000000     C
    C   1.0     0.442792     0.161721     0.586876  Biso 1.000000     C
    C   1.0     0.368915     0.222284     0.636846  Biso 1.000000     C
    C   1.0     0.403154     0.295102     0.691842  Biso 1.000000     C
    C   1.0     0.335606     0.349831     0.740506  Biso 1.000000     C
    C   1.0     0.232960     0.330530     0.733627  Biso 1.000000     C
    C   1.0     0.197152     0.258216     0.679564  Biso 1.000000     C
    C   1.0     0.265711     0.204648     0.631177  Biso 1.000000     C
    C   1.0     0.081426     0.431516     0.741012  Biso 1.000000     C
    C   1.0     0.152971     0.402673     0.874037  Biso 1.000000     C
    C   1.0     0.219277     0.365464     0.946571  Biso 1.000000     C
    C   1.0     0.942985     0.913211     0.338180  Biso 1.000000     C
    C   1.0     0.868933     0.863204     0.277788  Biso 1.000000     C
    C   1.0     0.902975     0.807904     0.205145  Biso 1.000000     C
    C   1.0     0.835266     0.759201     0.150586  Biso 1.000000     C
    C   1.0     0.732650     0.766317     0.169903  Biso 1.000000     C
    C   1.0     0.697029     0.820684     0.242050  Biso 1.000000     C
    C   1.0     0.765751     0.869126     0.295428  Biso 1.000000     C
    C   1.0     0.580751     0.758885     0.069348  Biso 1.000000     C
    C   1.0     0.652745     0.625940     0.097549  Biso 1.000000     C
    C   1.0     0.719325     0.553409     0.134338  Biso 1.000000     C
    C   1.0     0.942882     0.086818     0.661837  Biso 1.000000     C
    C   1.0     0.868860     0.136843     0.722213  Biso 1.000000     C
    C   1.0     0.902932     0.192196     0.794822  Biso 1.000000     C
    C   1.0     0.835249     0.240901     0.849376  Biso 1.000000     C
    C   1.0     0.732628     0.233770     0.830062  Biso 1.000000     C
    C   1.0     0.696979     0.179359     0.757945  Biso 1.000000     C
    C   1.0     0.765676     0.130922     0.704569  Biso 1.000000     C
    C   1.0     0.580754     0.241166     0.930645  Biso 1.000000     C
    C   1.0     0.652736     0.374139     0.902380  Biso 1.000000     C
    C   1.0     0.719305     0.446687     0.865541  Biso 1.000000     C
    C   1.0     0.443063     0.413139     0.161834  Biso 1.000000     C
    C   1.0     0.369099     0.363210     0.222411  Biso 1.000000     C
    C   1.0     0.403233     0.308170     0.295257  Biso 1.000000     C
    C   1.0     0.335594     0.259542     0.349989  Biso 1.000000     C
    C   1.0     0.232973     0.266470     0.330634  Biso 1.000000     C
    C   1.0     0.197265     0.320564     0.258282  Biso 1.000000     C
    C   1.0     0.265913     0.368919     0.204714  Biso 1.000000     C
    C   1.0     0.081345     0.259053     0.431561  Biso 1.000000     C
    C   1.0     0.152855     0.126045     0.402741  Biso 1.000000     C
    C   1.0     0.219151     0.053526     0.365560  Biso 1.000000     C
    C   1.0     0.442963     0.586886     0.838208  Biso 1.000000     C
    C   1.0     0.369028     0.636841     0.777650  Biso 1.000000     C
    C   1.0     0.403187     0.691897     0.704812  Biso 1.000000     C
    C   1.0     0.335574     0.740553     0.650102  Biso 1.000000     C
    C   1.0     0.232948     0.733607     0.669449  Biso 1.000000     C
    C   1.0     0.197217     0.679495     0.741792  Biso 1.000000     C
    C   1.0     0.265839     0.631117     0.795338  Biso 1.000000     C
    C   1.0     0.081330     0.741004     0.568516  Biso 1.000000     C
    C   1.0     0.152853     0.874036     0.597377  Biso 1.000000     C
    C   1.0     0.219150     0.946568     0.634597  Biso 1.000000     C
    N   1.0     0.526226     0.026509     0.302906  Biso 1.000000     N
    N   1.0     0.571924     0.044679     0.386621  Biso 1.000000     N
    N   1.0     0.660575     0.114138     0.281363  Biso 1.000000     N
    N   1.0     0.526329     0.973515     0.697195  Biso 1.000000     N
    N   1.0     0.571989     0.955369     0.613463  Biso 1.000000     N
    N   1.0     0.660626     0.885872     0.718687  Biso 1.000000     N
    N   1.0     0.026844     0.525810     0.197174  Biso 1.000000     N
    N   1.0     0.072332     0.544347     0.113432  Biso 1.000000     N
    N   1.0     0.161042     0.613609     0.218733  Biso 1.000000     N
    N   1.0     0.026969     0.474227     0.802790  Biso 1.000000     N
    N   1.0     0.072405     0.455688     0.886554  Biso 1.000000     N
    N   1.0     0.161107     0.386407     0.781286  Biso 1.000000     N
    N   1.0     0.526380     0.697129     0.026478  Biso 1.000000     N
    N   1.0     0.572102     0.613419     0.044609  Biso 1.000000     N
    N   1.0     0.660655     0.718648     0.114166  Biso 1.000000     N
    N   1.0     0.526387     0.302908     0.973498  Biso 1.000000     N
    N   1.0     0.572103     0.386638     0.955328  Biso 1.000000     N
    N   1.0     0.660649     0.281427     0.885800  Biso 1.000000     N
    N   1.0     0.026827     0.197248     0.474246  Biso 1.000000     N
    N   1.0     0.072246     0.113499     0.455723  Biso 1.000000     N
    N   1.0     0.161045     0.218805     0.386486  Biso 1.000000     N
    N   1.0     0.026818     0.802798     0.525847  Biso 1.000000     N
    N   1.0     0.072237     0.886565     0.544403  Biso 1.000000     N
    N   1.0     0.161032     0.781275     0.613610  Biso 1.000000     N
    O   1.0     0.902809     0.403688     0.038214  Biso 1.000000     O
    O   1.0     0.035172     0.323787     0.094336  Biso 1.000000     O
    O   1.0     0.902679     0.596156     0.961702  Biso 1.000000     O
    O   1.0     0.035066     0.676205     0.905750  Biso 1.000000     O
    O   1.0     0.402449     0.903866     0.461613  Biso 1.000000     O
    O   1.0     0.534929     0.823993     0.405807  Biso 1.000000     O
    O   1.0     0.402318     0.096007     0.538516  Biso 1.000000     O
    O   1.0     0.534829     0.176009     0.594173  Biso 1.000000     O
    O   1.0     0.902636     0.961737     0.403821  Biso 1.000000     O
    O   1.0     0.035024     0.905777     0.323870  Biso 1.000000     O
    O   1.0     0.902521     0.038295     0.596180  Biso 1.000000     O
    O   1.0     0.034924     0.094237     0.676170  Biso 1.000000     O
    O   1.0     0.402630     0.461578     0.096145  Biso 1.000000     O
    O   1.0     0.535094     0.405748     0.176074  Biso 1.000000     O
    O   1.0     0.402522     0.538440     0.903902  Biso 1.000000     O
    O   1.0     0.534996     0.594262     0.823947  Biso 1.000000     O
   Zn   1.0    -0.000142     0.500002    -0.000028  Biso 1.000000    Zn
   Zn   1.0     0.499637    -0.000000     0.500045  Biso 1.000000    Zn
   Zn   1.0    -0.000239     0.000001     0.500042  Biso 1.000000    Zn
   Zn   1.0     0.499749     0.500007    -0.000028  Biso 1.000000    Zn
