#======================================================================

# CRYSTAL DATA

#----------------------------------------------------------------------

data_VESTA_phase_1


_pd_phase_name                         MOF
_cell_length_a                         13.96400
_cell_length_b                         15.50500
_cell_length_c                         19.52900
_cell_angle_alpha                      89.99100
_cell_angle_beta                       102.09100
_cell_angle_gamma                      90.00700
_symmetry_space_group_name_H-M         "P 1"
_symmetry_Int_Tables_number            1

loop_
_symmetry_equiv_pos_as_xyz
   "x, y, z"

loop_
   _atom_site_label
   _atom_site_occupancy
   _atom_site_fract_x
   _atom_site_fract_y
   _atom_site_fract_z
   _atom_site_adp_type
   _atom_site_B_iso_or_equiv
   _atom_site_type_symbol
    H   1.0     0.493893     0.053043     0.362734  Biso 1.000000     H
    H   1.0     0.494746     0.052894     0.862868  Biso 1.000000     H
    H   1.0     0.494121     0.552926     0.362831  Biso 1.000000     H
    H   1.0     0.494097     0.552899     0.862844  Biso 1.000000     H
    H   1.0     0.994369     0.052895     0.362733  Biso 1.000000     H
    H   1.0     0.994387     0.052890     0.862790  Biso 1.000000     H
    H   1.0     0.994353     0.552902     0.362901  Biso 1.000000     H
    H   1.0     0.994337     0.552910     0.862879  Biso 1.000000     H
    H   1.0     0.170853     0.443398     0.402765  Biso 1.000000     H
    H   1.0     0.170835     0.443408     0.902765  Biso 1.000000     H
    H   1.0     0.170854     0.943416     0.402726  Biso 1.000000     H
    H   1.0     0.170876     0.943405     0.902731  Biso 1.000000     H
    H   1.0     0.670615     0.443422     0.402798  Biso 1.000000     H
    H   1.0     0.670603     0.443403     0.902788  Biso 1.000000     H
    H   1.0     0.671538     0.945022     0.403044  Biso 1.000000     H
    H   1.0     0.671219     0.943419     0.903003  Biso 1.000000     H
    H   1.0     0.102224     0.057010     0.272436  Biso 1.000000     H
    H   1.0     0.102232     0.057015     0.772451  Biso 1.000000     H
    H   1.0     0.102136     0.557028     0.272498  Biso 1.000000     H
    H   1.0     0.102124     0.557024     0.772489  Biso 1.000000     H
    H   1.0     0.602199     0.057707     0.272294  Biso 1.000000     H
    H   1.0     0.602605     0.057010     0.772706  Biso 1.000000     H
    H   1.0     0.601967     0.557029     0.272509  Biso 1.000000     H
    H   1.0     0.601950     0.557027     0.772509  Biso 1.000000     H
    H   1.0     0.285061     0.443272     0.315301  Biso 1.000000     H
    H   1.0     0.285048     0.443269     0.815297  Biso 1.000000     H
    H   1.0     0.285154     0.943286     0.315288  Biso 1.000000     H
    H   1.0     0.285153     0.943278     0.815296  Biso 1.000000     H
    H   1.0     0.784890     0.443276     0.315345  Biso 1.000000     H
    H   1.0     0.784875     0.443276     0.815343  Biso 1.000000     H
    H   1.0     0.785118     0.944032     0.315425  Biso 1.000000     H
    H   1.0     0.785545     0.943277     0.815433  Biso 1.000000     H
    H   1.0     0.006039     0.052792     0.137045  Biso 1.000000     H
    H   1.0     0.006056     0.052856     0.636996  Biso 1.000000     H
    H   1.0     0.005852     0.552874     0.137188  Biso 1.000000     H
    H   1.0     0.005857     0.552854     0.637191  Biso 1.000000     H
    H   1.0     0.506162     0.052844     0.137199  Biso 1.000000     H
    H   1.0     0.506176     0.052873     0.637172  Biso 1.000000     H
    H   1.0     0.506080     0.552863     0.137214  Biso 1.000000     H
    H   1.0     0.506082     0.552877     0.637248  Biso 1.000000     H
    H   1.0     0.329572     0.443371     0.097169  Biso 1.000000     H
    H   1.0     0.329585     0.443382     0.597164  Biso 1.000000     H
    H   1.0     0.329642     0.943383     0.097144  Biso 1.000000     H
    H   1.0     0.329676     0.943375     0.597168  Biso 1.000000     H
    H   1.0     0.829352     0.443378     0.097191  Biso 1.000000     H
    H   1.0     0.829355     0.443361     0.597199  Biso 1.000000     H
    H   1.0     0.829495     0.943344     0.097139  Biso 1.000000     H
    H   1.0     0.829537     0.943365     0.597146  Biso 1.000000     H
    H   1.0     0.398240     0.057004     0.227402  Biso 1.000000     H
    H   1.0     0.398263     0.057014     0.727420  Biso 1.000000     H
    H   1.0     0.398148     0.557018     0.227426  Biso 1.000000     H
    H   1.0     0.398136     0.557017     0.727430  Biso 1.000000     H
    H   1.0     0.898282     0.057091     0.227293  Biso 1.000000     H
    H   1.0     0.898402     0.057004     0.727356  Biso 1.000000     H
    H   1.0     0.897977     0.557016     0.227447  Biso 1.000000     H
    H   1.0     0.897968     0.557014     0.727447  Biso 1.000000     H
    H   1.0     0.215200     0.443270     0.184604  Biso 1.000000     H
    H   1.0     0.215193     0.443266     0.684599  Biso 1.000000     H
    H   1.0     0.215294     0.943270     0.184588  Biso 1.000000     H
    H   1.0     0.215320     0.943275     0.684595  Biso 1.000000     H
    H   1.0     0.715032     0.443265     0.184647  Biso 1.000000     H
    H   1.0     0.715022     0.443264     0.684643  Biso 1.000000     H
    H   1.0     0.715161     0.943520     0.184727  Biso 1.000000     H
    H   1.0     0.715428     0.943256     0.684771  Biso 1.000000     H
    H   1.0     0.005838     0.447127     0.137184  Biso 1.000000     H
    H   1.0     0.005844     0.447108     0.637220  Biso 1.000000     H
    H   1.0     0.005982     0.947055     0.137060  Biso 1.000000     H
    H   1.0     0.006048     0.947120     0.636993  Biso 1.000000     H
    H   1.0     0.506067     0.447121     0.137240  Biso 1.000000     H
    H   1.0     0.506068     0.447135     0.637231  Biso 1.000000     H
    H   1.0     0.506132     0.947113     0.137182  Biso 1.000000     H
    H   1.0     0.506173     0.947141     0.637203  Biso 1.000000     H
    H   1.0     0.329659     0.056609     0.097130  Biso 1.000000     H
    H   1.0     0.329674     0.056600     0.597143  Biso 1.000000     H
    H   1.0     0.329588     0.556613     0.097147  Biso 1.000000     H
    H   1.0     0.329584     0.556624     0.597149  Biso 1.000000     H
    H   1.0     0.829532     0.056569     0.097031  Biso 1.000000     H
    H   1.0     0.829534     0.056591     0.597122  Biso 1.000000     H
    H   1.0     0.829356     0.556619     0.097174  Biso 1.000000     H
    H   1.0     0.829371     0.556601     0.597171  Biso 1.000000     H
    H   1.0     0.398135     0.443001     0.227449  Biso 1.000000     H
    H   1.0     0.398126     0.443000     0.727445  Biso 1.000000     H
    H   1.0     0.398226     0.943002     0.227424  Biso 1.000000     H
    H   1.0     0.398255     0.943009     0.727446  Biso 1.000000     H
    H   1.0     0.897966     0.443000     0.227465  Biso 1.000000     H
    H   1.0     0.897954     0.442998     0.727475  Biso 1.000000     H
    H   1.0     0.898064     0.943089     0.227401  Biso 1.000000     H
    H   1.0     0.898399     0.943003     0.727384  Biso 1.000000     H
    H   1.0     0.215307     0.056736     0.184567  Biso 1.000000     H
    H   1.0     0.215333     0.056742     0.684579  Biso 1.000000     H
    H   1.0     0.215217     0.556754     0.184588  Biso 1.000000     H
    H   1.0     0.215206     0.556749     0.684583  Biso 1.000000     H
    H   1.0     0.715306     0.056991     0.184405  Biso 1.000000     H
    H   1.0     0.715435     0.056730     0.684746  Biso 1.000000     H
    H   1.0     0.715047     0.556754     0.184630  Biso 1.000000     H
    H   1.0     0.715040     0.556753     0.684625  Biso 1.000000     H
    H   1.0     0.494102     0.447176     0.362870  Biso 1.000000     H
    H   1.0     0.494081     0.447149     0.862830  Biso 1.000000     H
    H   1.0     0.494908     0.947318     0.362837  Biso 1.000000     H
    H   1.0     0.494734     0.947166     0.862895  Biso 1.000000     H
    H   1.0     0.994333     0.447148     0.362891  Biso 1.000000     H
    H   1.0     0.994320     0.447155     0.862897  Biso 1.000000     H
    H   1.0     0.994361     0.947159     0.362777  Biso 1.000000     H
    H   1.0     0.994369     0.947155     0.862782  Biso 1.000000     H
    H   1.0     0.170873     0.056643     0.402703  Biso 1.000000     H
    H   1.0     0.170883     0.056632     0.902717  Biso 1.000000     H
    H   1.0     0.170862     0.556640     0.402753  Biso 1.000000     H
    H   1.0     0.170851     0.556649     0.902745  Biso 1.000000     H
    H   1.0     0.670268     0.058242     0.402460  Biso 1.000000     H
    H   1.0     0.671233     0.056645     0.902977  Biso 1.000000     H
    H   1.0     0.670640     0.556664     0.402771  Biso 1.000000     H
    H   1.0     0.670605     0.556645     0.902773  Biso 1.000000     H
    H   1.0     0.102122     0.443009     0.272511  Biso 1.000000     H
    H   1.0     0.102110     0.443006     0.772511  Biso 1.000000     H
    H   1.0     0.102218     0.943008     0.272462  Biso 1.000000     H
    H   1.0     0.102219     0.943014     0.772467  Biso 1.000000     H
    H   1.0     0.601951     0.443010     0.272536  Biso 1.000000     H
    H   1.0     0.601937     0.443008     0.772525  Biso 1.000000     H
    H   1.0     0.602240     0.943705     0.272688  Biso 1.000000     H
    H   1.0     0.602594     0.943008     0.772733  Biso 1.000000     H
    H   1.0     0.285151     0.056758     0.315263  Biso 1.000000     H
    H   1.0     0.285167     0.056748     0.815280  Biso 1.000000     H
    H   1.0     0.285075     0.556758     0.315286  Biso 1.000000     H
    H   1.0     0.285064     0.556755     0.815282  Biso 1.000000     H
    H   1.0     0.785210     0.057498     0.315083  Biso 1.000000     H
    H   1.0     0.785557     0.056746     0.815410  Biso 1.000000     H
    H   1.0     0.784908     0.556756     0.315327  Biso 1.000000     H
    H   1.0     0.784890     0.556755     0.815325  Biso 1.000000     H
    C   1.0     0.330931     0.334369     0.477035  Biso 1.000000     C
    C   1.0     0.330775     0.334334     0.977007  Biso 1.000000     C
    C   1.0     0.330896     0.834378     0.477029  Biso 1.000000     C
    C   1.0     0.330948     0.834354     0.977028  Biso 1.000000     C
    C   1.0     0.831446     0.334354     0.476992  Biso 1.000000     C
    C   1.0     0.831473     0.334354     0.976986  Biso 1.000000     C
    C   1.0     0.831479     0.834346     0.476877  Biso 1.000000     C
    C   1.0     0.831484     0.834306     0.976991  Biso 1.000000     C
    C   1.0     0.169150     0.334277     0.023032  Biso 1.000000     C
    C   1.0     0.169301     0.334292     0.523079  Biso 1.000000     C
    C   1.0     0.169300     0.834315     0.023046  Biso 1.000000     C
    C   1.0     0.169208     0.834329     0.523020  Biso 1.000000     C
    C   1.0     0.669870     0.334308     0.023037  Biso 1.000000     C
    C   1.0     0.669852     0.334341     0.523061  Biso 1.000000     C
    C   1.0     0.669900     0.834313     0.023096  Biso 1.000000     C
    C   1.0     0.669917     0.834387     0.522916  Biso 1.000000     C
    C   1.0     0.169216     0.165656     0.023067  Biso 1.000000     C
    C   1.0     0.169352     0.165682     0.523086  Biso 1.000000     C
    C   1.0     0.169297     0.665718     0.023081  Biso 1.000000     C
    C   1.0     0.169244     0.665717     0.523071  Biso 1.000000     C
    C   1.0     0.669947     0.165694     0.023121  Biso 1.000000     C
    C   1.0     0.669922     0.165727     0.523205  Biso 1.000000     C
    C   1.0     0.669870     0.665681     0.023076  Biso 1.000000     C
    C   1.0     0.669921     0.665732     0.523076  Biso 1.000000     C
    C   1.0     0.330968     0.165715     0.477048  Biso 1.000000     C
    C   1.0     0.330863     0.165684     0.977047  Biso 1.000000     C
    C   1.0     0.330874     0.665720     0.477048  Biso 1.000000     C
    C   1.0     0.330919     0.665685     0.977048  Biso 1.000000     C
    C   1.0     0.831514     0.165746     0.477051  Biso 1.000000     C
    C   1.0     0.831550     0.165718     0.977037  Biso 1.000000     C
    C   1.0     0.831552     0.665693     0.477040  Biso 1.000000     C
    C   1.0     0.831475     0.665688     0.977023  Biso 1.000000     C
    C   1.0     0.133645     0.000020     0.375600  Biso 1.000000     C
    C   1.0     0.133656     0.000010     0.875614  Biso 1.000000     C
    C   1.0     0.133616     0.500019     0.375661  Biso 1.000000     C
    C   1.0     0.133602     0.500027     0.875656  Biso 1.000000     C
    C   1.0     0.633682     0.001185     0.375645  Biso 1.000000     C
    C   1.0     0.634030     0.000021     0.875865  Biso 1.000000     C
    C   1.0     0.633406     0.500041     0.375674  Biso 1.000000     C
    C   1.0     0.633384     0.500021     0.875669  Biso 1.000000     C
    C   1.0     0.141028     0.000006     0.298690  Biso 1.000000     C
    C   1.0     0.141034     0.000008     0.798700  Biso 1.000000     C
    C   1.0     0.140948     0.500018     0.298737  Biso 1.000000     C
    C   1.0     0.140936     0.500017     0.798732  Biso 1.000000     C
    C   1.0     0.641038     0.000818     0.298725  Biso 1.000000     C
    C   1.0     0.641421     0.000006     0.798953  Biso 1.000000     C
    C   1.0     0.640772     0.500023     0.298760  Biso 1.000000     C
    C   1.0     0.640756     0.500018     0.798755  Biso 1.000000     C
    C   1.0     0.246753     0.000007     0.288505  Biso 1.000000     C
    C   1.0     0.246762     0.000004     0.788515  Biso 1.000000     C
    C   1.0     0.246664     0.500015     0.288526  Biso 1.000000     C
    C   1.0     0.246652     0.500012     0.788521  Biso 1.000000     C
    C   1.0     0.746746     0.000678     0.288496  Biso 1.000000     C
    C   1.0     0.747110     0.000001     0.788682  Biso 1.000000     C
    C   1.0     0.746496     0.500015     0.288565  Biso 1.000000     C
    C   1.0     0.746480     0.500015     0.788561  Biso 1.000000     C
    C   1.0     0.366855    -0.000012     0.124257  Biso 1.000000     C
    C   1.0     0.366883    -0.000013     0.624274  Biso 1.000000     C
    C   1.0     0.366779     0.499994     0.124282  Biso 1.000000     C
    C   1.0     0.366780     0.500006     0.624282  Biso 1.000000     C
    C   1.0     0.866734    -0.000027     0.124195  Biso 1.000000     C
    C   1.0     0.866789    -0.000023     0.624223  Biso 1.000000     C
    C   1.0     0.866573     0.500002     0.124296  Biso 1.000000     C
    C   1.0     0.866577     0.499985     0.624301  Biso 1.000000     C
    C   1.0     0.359434    -0.000007     0.201164  Biso 1.000000     C
    C   1.0     0.359463    -0.000001     0.701182  Biso 1.000000     C
    C   1.0     0.359344     0.500007     0.201186  Biso 1.000000     C
    C   1.0     0.359336     0.500008     0.701185  Biso 1.000000     C
    C   1.0     0.859358     0.000100     0.201110  Biso 1.000000     C
    C   1.0     0.859545    -0.000010     0.701164  Biso 1.000000     C
    C   1.0     0.859169     0.500007     0.201209  Biso 1.000000     C
    C   1.0     0.859161     0.500002     0.701212  Biso 1.000000     C
    C   1.0     0.253704    -0.000002     0.211346  Biso 1.000000     C
    C   1.0     0.253727     0.000002     0.711359  Biso 1.000000     C
    C   1.0     0.253610     0.500012     0.211365  Biso 1.000000     C
    C   1.0     0.253600     0.500009     0.711361  Biso 1.000000     C
    C   1.0     0.753645     0.000310     0.211326  Biso 1.000000     C
    C   1.0     0.753885    -0.000009     0.711487  Biso 1.000000     C
    C   1.0     0.753442     0.500010     0.211404  Biso 1.000000     C
    C   1.0     0.753432     0.500009     0.711401  Biso 1.000000     C
    N   1.0     0.381908     0.389132     0.463179  Biso 1.000000     N
    N   1.0     0.381799     0.389085     0.963192  Biso 1.000000     N
    N   1.0     0.381941     0.889116     0.463217  Biso 1.000000     N
    N   1.0     0.381958     0.889103     0.963189  Biso 1.000000     N
    N   1.0     0.882167     0.389151     0.462859  Biso 1.000000     N
    N   1.0     0.882161     0.389172     0.962847  Biso 1.000000     N
    N   1.0     0.882123     0.889172     0.462688  Biso 1.000000     N
    N   1.0     0.882194     0.889092     0.962827  Biso 1.000000     N
    N   1.0     0.118294     0.389024     0.037045  Biso 1.000000     N
    N   1.0     0.118389     0.389014     0.537060  Biso 1.000000     N
    N   1.0     0.118392     0.889046     0.037017  Biso 1.000000     N
    N   1.0     0.118306     0.889063     0.536994  Biso 1.000000     N
    N   1.0     0.618685     0.388987     0.036733  Biso 1.000000     N
    N   1.0     0.618699     0.389042     0.536762  Biso 1.000000     N
    N   1.0     0.618766     0.889007     0.036836  Biso 1.000000     N
    N   1.0     0.618783     0.889137     0.536562  Biso 1.000000     N
    N   1.0     0.118381     0.110884     0.037095  Biso 1.000000     N
    N   1.0     0.118460     0.110919     0.537053  Biso 1.000000     N
    N   1.0     0.118398     0.610978     0.037076  Biso 1.000000     N
    N   1.0     0.118395     0.610953     0.537096  Biso 1.000000     N
    N   1.0     0.618803     0.111001     0.036876  Biso 1.000000     N
    N   1.0     0.618777     0.111059     0.537001  Biso 1.000000     N
    N   1.0     0.618712     0.610974     0.036789  Biso 1.000000     N
    N   1.0     0.618752     0.611043     0.536806  Biso 1.000000     N
    N   1.0     0.381957     0.110976     0.463195  Biso 1.000000     N
    N   1.0     0.381943     0.110977     0.963259  Biso 1.000000     N
    N   1.0     0.381888     0.610980     0.463231  Biso 1.000000     N
    N   1.0     0.381898     0.610930     0.963209  Biso 1.000000     N
    N   1.0     0.882262     0.110995     0.462909  Biso 1.000000     N
    N   1.0     0.882265     0.110933     0.962906  Biso 1.000000     N
    N   1.0     0.882261     0.610885     0.462940  Biso 1.000000     N
    N   1.0     0.882198     0.610901     0.962907  Biso 1.000000     N
    N   1.0     0.031683     0.000029     0.386248  Biso 1.000000     N
    N   1.0     0.031700     0.000008     0.886276  Biso 1.000000     N
    N   1.0     0.031684     0.500017     0.386367  Biso 1.000000     N
    N   1.0     0.031668     0.500033     0.886359  Biso 1.000000     N
    N   1.0     0.531710     0.000437     0.386303  Biso 1.000000     N
    N   1.0     0.532008     0.000027     0.886436  Biso 1.000000     N
    N   1.0     0.531443     0.500057     0.386343  Biso 1.000000     N
    N   1.0     0.531418     0.500016     0.886333  Biso 1.000000     N
    N   1.0     0.468861    -0.000017     0.113655  Biso 1.000000     N
    N   1.0     0.468883    -0.000008     0.613657  Biso 1.000000     N
    N   1.0     0.468790     0.499988     0.113685  Biso 1.000000     N
    N   1.0     0.468795     0.500015     0.613694  Biso 1.000000     N
    N   1.0     0.968703    -0.000075     0.113552  Biso 1.000000     N
    N   1.0     0.968724    -0.000017     0.613510  Biso 1.000000     N
    N   1.0     0.968554     0.500005     0.113664  Biso 1.000000     N
    N   1.0     0.968564     0.499976     0.613679  Biso 1.000000     N
   Ni   1.0     0.249936     0.249990    -0.000026  Biso 1.000000    Ni
   Ni   1.0     0.250123     0.250016     0.500034  Biso 1.000000    Ni
   Ni   1.0     0.250010     0.750038     0.499994  Biso 1.000000    Ni
   Ni   1.0     0.250096     0.750023     0.000013  Biso 1.000000    Ni
   Ni   1.0     0.750901     0.250017     0.000182  Biso 1.000000    Ni
   Ni   1.0     0.750857     0.250029     0.500205  Biso 1.000000    Ni
   Ni   1.0     0.750862     0.750005     0.000181  Biso 1.000000    Ni
   Ni   1.0     0.750914     0.750027     0.500135  Biso 1.000000    Ni
   Cd   1.0     0.000286    -0.000033    -0.000065  Biso 1.000000    Cd
   Cd   1.0     0.000254     0.000032     0.499892  Biso 1.000000    Cd
   Cd   1.0     0.000269     0.500034     0.000045  Biso 1.000000    Cd
   Cd   1.0     0.000300     0.499982     0.500064  Biso 1.000000    Cd
   Cd   1.0     0.500372     0.000028     0.000025  Biso 1.000000    Cd
   Cd   1.0     0.500356     0.000075     0.499992  Biso 1.000000    Cd
   Cd   1.0     0.500263     0.499985     0.000041  Biso 1.000000    Cd
   Cd   1.0     0.500302     0.500068     0.500060  Biso 1.000000    Cd
