#======================================================================

# CRYSTAL DATA

#----------------------------------------------------------------------

data_VESTA_phase_1


_pd_phase_name                         MOF
_cell_length_a                         15.42800
_cell_length_b                         20.13400
_cell_length_c                         17.80500
_cell_angle_alpha                      89.98000
_cell_angle_beta                       89.98700
_cell_angle_gamma                      89.99500
_symmetry_space_group_name_H-M         "P 1"
_symmetry_Int_Tables_number            1

loop_
_symmetry_equiv_pos_as_xyz
   "x, y, z"

loop_
   _atom_site_label
   _atom_site_occupancy
   _atom_site_fract_x
   _atom_site_fract_y
   _atom_site_fract_z
   _atom_site_adp_type
   _atom_site_B_iso_or_equiv
   _atom_site_type_symbol
    H   1.0     0.288042     0.227218     0.316263  Biso 1.000000     H
    H   1.0     0.288051     0.727245     0.316296  Biso 1.000000     H
    H   1.0     0.788014     0.227189     0.316212  Biso 1.000000     H
    H   1.0     0.788039     0.727206     0.316206  Biso 1.000000     H
    H   1.0     0.025156     0.234309     0.376744  Biso 1.000000     H
    H   1.0     0.025151     0.734312     0.376739  Biso 1.000000     H
    H   1.0     0.525152     0.234331     0.376767  Biso 1.000000     H
    H   1.0     0.525173     0.734312     0.376752  Biso 1.000000     H
    H   1.0     0.461960     0.272731     0.815965  Biso 1.000000     H
    H   1.0     0.461942     0.772723     0.815980  Biso 1.000000     H
    H   1.0     0.961888     0.272697     0.816006  Biso 1.000000     H
    H   1.0     0.961887     0.772693     0.816037  Biso 1.000000     H
    H   1.0     0.224513     0.265737     0.877246  Biso 1.000000     H
    H   1.0     0.224525     0.765747     0.877237  Biso 1.000000     H
    H   1.0     0.724554     0.265714     0.877208  Biso 1.000000     H
    H   1.0     0.724541     0.765731     0.877208  Biso 1.000000     H
    H   1.0     0.212137     0.477148     0.683885  Biso 1.000000     H
    H   1.0     0.212102     0.977182     0.683840  Biso 1.000000     H
    H   1.0     0.712101     0.477137     0.683920  Biso 1.000000     H
    H   1.0     0.712083     0.977165     0.683874  Biso 1.000000     H
    H   1.0     0.474988     0.484373     0.623321  Biso 1.000000     H
    H   1.0     0.474990     0.984338     0.623388  Biso 1.000000     H
    H   1.0     0.974947     0.484352     0.623334  Biso 1.000000     H
    H   1.0     0.974941     0.984375     0.623328  Biso 1.000000     H
    H   1.0     0.038119     0.022660     0.183947  Biso 1.000000     H
    H   1.0     0.038121     0.522658     0.183947  Biso 1.000000     H
    H   1.0     0.538141     0.022636     0.183908  Biso 1.000000     H
    H   1.0     0.538117     0.522671     0.183942  Biso 1.000000     H
    H   1.0     0.275547     0.015745     0.122649  Biso 1.000000     H
    H   1.0     0.275543     0.515746     0.122627  Biso 1.000000     H
    H   1.0     0.775483     0.015787     0.122743  Biso 1.000000     H
    H   1.0     0.775487     0.515783     0.122729  Biso 1.000000     H
    H   1.0     0.212015     0.272817     0.683767  Biso 1.000000     H
    H   1.0     0.212024     0.772834     0.683798  Biso 1.000000     H
    H   1.0     0.711974     0.272797     0.683747  Biso 1.000000     H
    H   1.0     0.711993     0.772815     0.683764  Biso 1.000000     H
    H   1.0     0.474879     0.265689     0.623222  Biso 1.000000     H
    H   1.0     0.474882     0.765712     0.623230  Biso 1.000000     H
    H   1.0     0.974853     0.265715     0.623243  Biso 1.000000     H
    H   1.0     0.974854     0.765695     0.623209  Biso 1.000000     H
    H   1.0     0.038120     0.227313     0.183992  Biso 1.000000     H
    H   1.0     0.038108     0.727308     0.184003  Biso 1.000000     H
    H   1.0     0.538040     0.227269     0.184040  Biso 1.000000     H
    H   1.0     0.538045     0.727282     0.184037  Biso 1.000000     H
    H   1.0     0.275452     0.234318     0.122781  Biso 1.000000     H
    H   1.0     0.275454     0.734321     0.122788  Biso 1.000000     H
    H   1.0     0.775506     0.234299     0.122724  Biso 1.000000     H
    H   1.0     0.775502     0.734311     0.122711  Biso 1.000000     H
    H   1.0     0.287933     0.022857     0.316134  Biso 1.000000     H
    H   1.0     0.287943     0.522858     0.316136  Biso 1.000000     H
    H   1.0     0.787912     0.022863     0.316119  Biso 1.000000     H
    H   1.0     0.787944     0.522846     0.316140  Biso 1.000000     H
    H   1.0     0.025059     0.015663     0.376631  Biso 1.000000     H
    H   1.0     0.025071     0.515665     0.376646  Biso 1.000000     H
    H   1.0     0.525050     0.015640     0.376655  Biso 1.000000     H
    H   1.0     0.525062     0.515688     0.376614  Biso 1.000000     H
    H   1.0     0.461858     0.477395     0.816097  Biso 1.000000     H
    H   1.0     0.461872     0.977382     0.816075  Biso 1.000000     H
    H   1.0     0.961878     0.477375     0.816071  Biso 1.000000     H
    H   1.0     0.961886     0.977385     0.816076  Biso 1.000000     H
    H   1.0     0.224532     0.484201     0.877227  Biso 1.000000     H
    H   1.0     0.224547     0.984222     0.877217  Biso 1.000000     H
    H   1.0     0.724456     0.484252     0.877353  Biso 1.000000     H
    H   1.0     0.724459     0.984260     0.877355  Biso 1.000000     H
    H   1.0     0.267445     0.124939     0.583146  Biso 1.000000     H
    H   1.0     0.267466     0.624977     0.583159  Biso 1.000000     H
    H   1.0     0.767435     0.124952     0.583144  Biso 1.000000     H
    H   1.0     0.767458     0.624907     0.583150  Biso 1.000000     H
    H   1.0     0.000769     0.125068     0.536444  Biso 1.000000     H
    H   1.0     0.000792     0.625053     0.536452  Biso 1.000000     H
    H   1.0     0.500760     0.125056     0.536441  Biso 1.000000     H
    H   1.0     0.500784     0.625101     0.536437  Biso 1.000000     H
    H   1.0     0.481917     0.374950     0.083515  Biso 1.000000     H
    H   1.0     0.481912     0.874908     0.083515  Biso 1.000000     H
    H   1.0     0.981916     0.374986     0.083517  Biso 1.000000     H
    H   1.0     0.981922     0.874994     0.083511  Biso 1.000000     H
    H   1.0     0.248442     0.374981     0.035915  Biso 1.000000     H
    H   1.0     0.248452     0.875020     0.035928  Biso 1.000000     H
    H   1.0     0.748417     0.375065     0.035913  Biso 1.000000     H
    H   1.0     0.748411     0.875107     0.035903  Biso 1.000000     H
    H   1.0     0.232609     0.375070     0.416848  Biso 1.000000     H
    H   1.0     0.232609     0.875118     0.416855  Biso 1.000000     H
    H   1.0     0.732576     0.375063     0.416839  Biso 1.000000     H
    H   1.0     0.732562     0.875061     0.416829  Biso 1.000000     H
    H   1.0     0.499280     0.374959     0.463567  Biso 1.000000     H
    H   1.0     0.499280     0.874926     0.463571  Biso 1.000000     H
    H   1.0     0.999244     0.374958     0.463570  Biso 1.000000     H
    H   1.0     0.999229     0.874965     0.463562  Biso 1.000000     H
    H   1.0     0.018084     0.125047     0.916486  Biso 1.000000     H
    H   1.0     0.018074     0.625015     0.916488  Biso 1.000000     H
    H   1.0     0.518071     0.125082     0.916496  Biso 1.000000     H
    H   1.0     0.518059     0.625104     0.916499  Biso 1.000000     H
    H   1.0     0.251562     0.124928     0.964061  Biso 1.000000     H
    H   1.0     0.251552     0.624943     0.964072  Biso 1.000000     H
    H   1.0     0.751554     0.125020     0.964066  Biso 1.000000     H
    H   1.0     0.751545     0.625023     0.964068  Biso 1.000000     H
    C   1.0     0.220754     0.242239     0.320937  Biso 1.000000     C
    C   1.0     0.220761     0.742263     0.320964  Biso 1.000000     C
    C   1.0     0.720732     0.242221     0.320902  Biso 1.000000     C
    C   1.0     0.720753     0.742230     0.320896  Biso 1.000000     C
    C   1.0     0.087902     0.245877     0.352526  Biso 1.000000     C
    C   1.0     0.087899     0.745883     0.352525  Biso 1.000000     C
    C   1.0     0.587895     0.245887     0.352532  Biso 1.000000     C
    C   1.0     0.587912     0.745878     0.352518  Biso 1.000000     C
    C   1.0     0.029207     0.257732     0.820849  Biso 1.000000     C
    C   1.0     0.029204     0.757725     0.820882  Biso 1.000000     C
    C   1.0     0.529246     0.257748     0.820808  Biso 1.000000     C
    C   1.0     0.529233     0.757749     0.820816  Biso 1.000000     C
    C   1.0     0.161897     0.254154     0.852813  Biso 1.000000     C
    C   1.0     0.161908     0.754166     0.852806  Biso 1.000000     C
    C   1.0     0.661931     0.254140     0.852785  Biso 1.000000     C
    C   1.0     0.661920     0.754150     0.852786  Biso 1.000000     C
    C   1.0     0.279410     0.492199     0.679189  Biso 1.000000     C
    C   1.0     0.279382     0.992218     0.679169  Biso 1.000000     C
    C   1.0     0.779372     0.492189     0.679209  Biso 1.000000     C
    C   1.0     0.779357     0.992212     0.679180  Biso 1.000000     C
    C   1.0     0.412237     0.495907     0.647548  Biso 1.000000     C
    C   1.0     0.412229     0.995891     0.647585  Biso 1.000000     C
    C   1.0     0.912200     0.495887     0.647570  Biso 1.000000     C
    C   1.0     0.912190     0.995910     0.647555  Biso 1.000000     C
    C   1.0     0.470851     0.007675     0.179054  Biso 1.000000     C
    C   1.0     0.470828     0.507708     0.179087  Biso 1.000000     C
    C   1.0     0.970800     0.007707     0.179110  Biso 1.000000     C
    C   1.0     0.970805     0.507701     0.179097  Biso 1.000000     C
    C   1.0     0.338153     0.004147     0.147104  Biso 1.000000     C
    C   1.0     0.338148     0.504149     0.147084  Biso 1.000000     C
    C   1.0     0.838101     0.004175     0.147166  Biso 1.000000     C
    C   1.0     0.838101     0.504179     0.147167  Biso 1.000000     C
    C   1.0     0.279300     0.257790     0.679083  Biso 1.000000     C
    C   1.0     0.279306     0.757803     0.679097  Biso 1.000000     C
    C   1.0     0.779262     0.257777     0.679066  Biso 1.000000     C
    C   1.0     0.779278     0.757788     0.679074  Biso 1.000000     C
    C   1.0     0.412135     0.254128     0.647450  Biso 1.000000     C
    C   1.0     0.412143     0.754151     0.647468  Biso 1.000000     C
    C   1.0     0.912110     0.254144     0.647468  Biso 1.000000     C
    C   1.0     0.912115     0.754135     0.647447  Biso 1.000000     C
    C   1.0     0.470761     0.242268     0.179182  Biso 1.000000     C
    C   1.0     0.470762     0.742273     0.179189  Biso 1.000000     C
    C   1.0     0.970806     0.242286     0.179138  Biso 1.000000     C
    C   1.0     0.970797     0.742288     0.179142  Biso 1.000000     C
    C   1.0     0.338071     0.245878     0.147221  Biso 1.000000     C
    C   1.0     0.338074     0.745887     0.147223  Biso 1.000000     C
    C   1.0     0.838117     0.245873     0.147171  Biso 1.000000     C
    C   1.0     0.838112     0.745881     0.147162  Biso 1.000000     C
    C   1.0     0.220654     0.007818     0.320810  Biso 1.000000     C
    C   1.0     0.220668     0.507811     0.320828  Biso 1.000000     C
    C   1.0     0.720640     0.007812     0.320811  Biso 1.000000     C
    C   1.0     0.720663     0.507814     0.320813  Biso 1.000000     C
    C   1.0     0.087817     0.004119     0.352424  Biso 1.000000     C
    C   1.0     0.087824     0.504127     0.352424  Biso 1.000000     C
    C   1.0     0.587804     0.004107     0.352431  Biso 1.000000     C
    C   1.0     0.587819     0.504136     0.352410  Biso 1.000000     C
    C   1.0     0.029203     0.492316     0.820897  Biso 1.000000     C
    C   1.0     0.029207     0.992334     0.820909  Biso 1.000000     C
    C   1.0     0.529153     0.492342     0.820946  Biso 1.000000     C
    C   1.0     0.529168     0.992329     0.820916  Biso 1.000000     C
    C   1.0     0.161912     0.495823     0.852814  Biso 1.000000     C
    C   1.0     0.161924     0.995836     0.852804  Biso 1.000000     C
    C   1.0     0.661849     0.495861     0.852906  Biso 1.000000     C
    C   1.0     0.661850     0.995872     0.852914  Biso 1.000000     C
    C   1.0     0.197570     0.124971     0.589818  Biso 1.000000     C
    C   1.0     0.197591     0.625005     0.589830  Biso 1.000000     C
    C   1.0     0.697560     0.124988     0.589817  Biso 1.000000     C
    C   1.0     0.697582     0.624950     0.589820  Biso 1.000000     C
    C   1.0     0.062650     0.125050     0.565486  Biso 1.000000     C
    C   1.0     0.062672     0.625042     0.565496  Biso 1.000000     C
    C   1.0     0.562641     0.125034     0.565483  Biso 1.000000     C
    C   1.0     0.562663     0.625069     0.565483  Biso 1.000000     C
    C   1.0     0.051844     0.374994     0.089921  Biso 1.000000     C
    C   1.0     0.051849     0.874989     0.089920  Biso 1.000000     C
    C   1.0     0.551819     0.374976     0.089918  Biso 1.000000     C
    C   1.0     0.551816     0.874961     0.089918  Biso 1.000000     C
    C   1.0     0.186672     0.374987     0.065159  Biso 1.000000     C
    C   1.0     0.186678     0.875028     0.065167  Biso 1.000000     C
    C   1.0     0.686647     0.375045     0.065156  Biso 1.000000     C
    C   1.0     0.686642     0.875065     0.065150  Biso 1.000000     C
    C   1.0     0.302484     0.375031     0.410179  Biso 1.000000     C
    C   1.0     0.302484     0.875071     0.410186  Biso 1.000000     C
    C   1.0     0.802452     0.375034     0.410174  Biso 1.000000     C
    C   1.0     0.802438     0.875028     0.410165  Biso 1.000000     C
    C   1.0     0.437401     0.374982     0.434522  Biso 1.000000     C
    C   1.0     0.437401     0.874961     0.434526  Biso 1.000000     C
    C   1.0     0.937368     0.374971     0.434520  Biso 1.000000     C
    C   1.0     0.937353     0.874982     0.434512  Biso 1.000000     C
    C   1.0     0.448169     0.125048     0.910082  Biso 1.000000     C
    C   1.0     0.448157     0.625056     0.910085  Biso 1.000000     C
    C   1.0     0.948157     0.125033     0.910075  Biso 1.000000     C
    C   1.0     0.948148     0.625022     0.910077  Biso 1.000000     C
    C   1.0     0.313338     0.124960     0.934826  Biso 1.000000     C
    C   1.0     0.313327     0.624977     0.934835  Biso 1.000000     C
    C   1.0     0.813327     0.125019     0.934827  Biso 1.000000     C
    C   1.0     0.813318     0.625014     0.934829  Biso 1.000000     C
    N   1.0     0.160561     0.208516     0.361491  Biso 1.000000     N
    N   1.0     0.160564     0.708532     0.361505  Biso 1.000000     N
    N   1.0     0.660544     0.208512     0.361477  Biso 1.000000     N
    N   1.0     0.660570     0.708514     0.361468  Biso 1.000000     N
    N   1.0     0.188334     0.296559     0.288796  Biso 1.000000     N
    N   1.0     0.188333     0.796572     0.288807  Biso 1.000000     N
    N   1.0     0.688319     0.296549     0.288772  Biso 1.000000     N
    N   1.0     0.688326     0.796551     0.288761  Biso 1.000000     N
    N   1.0     0.102212     0.299027     0.309298  Biso 1.000000     N
    N   1.0     0.102208     0.799035     0.309300  Biso 1.000000     N
    N   1.0     0.602204     0.299031     0.309295  Biso 1.000000     N
    N   1.0     0.602211     0.799025     0.309285  Biso 1.000000     N
    N   1.0     0.089137     0.291456     0.861636  Biso 1.000000     N
    N   1.0     0.089143     0.791462     0.861643  Biso 1.000000     N
    N   1.0     0.589192     0.291471     0.861578  Biso 1.000000     N
    N   1.0     0.589175     0.791473     0.861587  Biso 1.000000     N
    N   1.0     0.061816     0.203487     0.788726  Biso 1.000000     N
    N   1.0     0.061818     0.703490     0.788738  Biso 1.000000     N
    N   1.0     0.561826     0.203477     0.788720  Biso 1.000000     N
    N   1.0     0.561818     0.703481     0.788724  Biso 1.000000     N
    N   1.0     0.147876     0.201044     0.809466  Biso 1.000000     N
    N   1.0     0.147879     0.701047     0.809474  Biso 1.000000     N
    N   1.0     0.647883     0.201017     0.809463  Biso 1.000000     N
    N   1.0     0.647878     0.701030     0.809459  Biso 1.000000     N
    N   1.0     0.339619     0.458504     0.638641  Biso 1.000000     N
    N   1.0     0.339601     0.958504     0.638651  Biso 1.000000     N
    N   1.0     0.839581     0.458485     0.638669  Biso 1.000000     N
    N   1.0     0.839569     0.958513     0.638640  Biso 1.000000     N
    N   1.0     0.311763     0.046541     0.711255  Biso 1.000000     N
    N   1.0     0.311775     0.546544     0.711267  Biso 1.000000     N
    N   1.0     0.811739     0.046533     0.711269  Biso 1.000000     N
    N   1.0     0.811746     0.546530     0.711289  Biso 1.000000     N
    N   1.0     0.397887     0.049029     0.690758  Biso 1.000000     N
    N   1.0     0.397886     0.549055     0.690733  Biso 1.000000     N
    N   1.0     0.897851     0.049044     0.690738  Biso 1.000000     N
    N   1.0     0.897853     0.549044     0.690743  Biso 1.000000     N
    N   1.0     0.410929     0.041425     0.138256  Biso 1.000000     N
    N   1.0     0.410915     0.541441     0.138261  Biso 1.000000     N
    N   1.0     0.910864     0.041469     0.138339  Biso 1.000000     N
    N   1.0     0.910865     0.541470     0.138337  Biso 1.000000     N
    N   1.0     0.438205     0.453465     0.211235  Biso 1.000000     N
    N   1.0     0.438205     0.953466     0.211231  Biso 1.000000     N
    N   1.0     0.938187     0.453450     0.211236  Biso 1.000000     N
    N   1.0     0.938179     0.953464     0.211233  Biso 1.000000     N
    N   1.0     0.352152     0.451038     0.190476  Biso 1.000000     N
    N   1.0     0.352151     0.951042     0.190478  Biso 1.000000     N
    N   1.0     0.852130     0.451030     0.190494  Biso 1.000000     N
    N   1.0     0.852117     0.951049     0.190504  Biso 1.000000     N
    N   1.0     0.339482     0.291499     0.638504  Biso 1.000000     N
    N   1.0     0.339486     0.791520     0.638524  Biso 1.000000     N
    N   1.0     0.839447     0.291501     0.638505  Biso 1.000000     N
    N   1.0     0.839458     0.791500     0.638495  Biso 1.000000     N
    N   1.0     0.311714     0.203461     0.711210  Biso 1.000000     N
    N   1.0     0.311728     0.703479     0.711230  Biso 1.000000     N
    N   1.0     0.811689     0.203460     0.711207  Biso 1.000000     N
    N   1.0     0.811699     0.703468     0.711213  Biso 1.000000     N
    N   1.0     0.397831     0.200985     0.690692  Biso 1.000000     N
    N   1.0     0.397841     0.701002     0.690699  Biso 1.000000     N
    N   1.0     0.897809     0.200994     0.690697  Biso 1.000000     N
    N   1.0     0.897815     0.700991     0.690688  Biso 1.000000     N
    N   1.0     0.410807     0.208544     0.138421  Biso 1.000000     N
    N   1.0     0.410810     0.708555     0.138422  Biso 1.000000     N
    N   1.0     0.910874     0.208566     0.138350  Biso 1.000000     N
    N   1.0     0.910866     0.708569     0.138352  Biso 1.000000     N
    N   1.0     0.438182     0.296531     0.211289  Biso 1.000000     N
    N   1.0     0.438185     0.796539     0.211294  Biso 1.000000     N
    N   1.0     0.938196     0.296528     0.211271  Biso 1.000000     N
    N   1.0     0.938190     0.796535     0.211267  Biso 1.000000     N
    N   1.0     0.352129     0.299006     0.190531  Biso 1.000000     N
    N   1.0     0.352130     0.799008     0.190543  Biso 1.000000     N
    N   1.0     0.852141     0.298982     0.190518  Biso 1.000000     N
    N   1.0     0.852137     0.798992     0.190506  Biso 1.000000     N
    N   1.0     0.160435     0.041520     0.361341  Biso 1.000000     N
    N   1.0     0.160447     0.541520     0.361348  Biso 1.000000     N
    N   1.0     0.660421     0.041509     0.361346  Biso 1.000000     N
    N   1.0     0.660447     0.541524     0.361338  Biso 1.000000     N
    N   1.0     0.188292     0.453480     0.288728  Biso 1.000000     N
    N   1.0     0.188283     0.953485     0.288738  Biso 1.000000     N
    N   1.0     0.688287     0.453475     0.288729  Biso 1.000000     N
    N   1.0     0.688265     0.953487     0.288725  Biso 1.000000     N
    N   1.0     0.102178     0.450970     0.309253  Biso 1.000000     N
    N   1.0     0.102164     0.950983     0.309248  Biso 1.000000     N
    N   1.0     0.602166     0.450984     0.309232  Biso 1.000000     N
    N   1.0     0.602152     0.950974     0.309251  Biso 1.000000     N
    N   1.0     0.089139     0.458544     0.861657  Biso 1.000000     N
    N   1.0     0.089154     0.958554     0.861650  Biso 1.000000     N
    N   1.0     0.589067     0.458589     0.861748  Biso 1.000000     N
    N   1.0     0.589075     0.958589     0.861742  Biso 1.000000     N
    N   1.0     0.061834     0.046567     0.788768  Biso 1.000000     N
    N   1.0     0.061823     0.546569     0.788766  Biso 1.000000     N
    N   1.0     0.561808     0.046558     0.788778  Biso 1.000000     N
    N   1.0     0.561797     0.546570     0.788779  Biso 1.000000     N
    N   1.0     0.147899     0.048974     0.809486  Biso 1.000000     N
    N   1.0     0.147890     0.548969     0.809481  Biso 1.000000     N
    N   1.0     0.647867     0.048966     0.809519  Biso 1.000000     N
    N   1.0     0.647853     0.548981     0.809526  Biso 1.000000     N
    N   1.0     0.141432     0.125010     0.531034  Biso 1.000000     N
    N   1.0     0.141455     0.625019     0.531045  Biso 1.000000     N
    N   1.0     0.641424     0.125011     0.531031  Biso 1.000000     N
    N   1.0     0.641447     0.625015     0.531034  Biso 1.000000     N
    N   1.0     0.157540     0.125005     0.655955  Biso 1.000000     N
    N   1.0     0.157559     0.625018     0.655965  Biso 1.000000     N
    N   1.0     0.657529     0.124991     0.655952  Biso 1.000000     N
    N   1.0     0.657548     0.624988     0.655954  Biso 1.000000     N
    N   1.0     0.069996     0.125033     0.640327  Biso 1.000000     N
    N   1.0     0.070016     0.625043     0.640336  Biso 1.000000     N
    N   1.0     0.569986     0.125027     0.640323  Biso 1.000000     N
    N   1.0     0.570006     0.625037     0.640323  Biso 1.000000     N
    N   1.0     0.107746     0.374978     0.030967  Biso 1.000000     N
    N   1.0     0.107755     0.875010     0.030970  Biso 1.000000     N
    N   1.0     0.607721     0.375014     0.030965  Biso 1.000000     N
    N   1.0     0.607714     0.875012     0.030962  Biso 1.000000     N
    N   1.0     0.092143     0.375005     0.155918  Biso 1.000000     N
    N   1.0     0.092142     0.875019     0.155920  Biso 1.000000     N
    N   1.0     0.592120     0.374996     0.155916  Biso 1.000000     N
    N   1.0     0.592119     0.874986     0.155913  Biso 1.000000     N
    N   1.0     0.179624     0.375010     0.140035  Biso 1.000000     N
    N   1.0     0.179625     0.875016     0.140042  Biso 1.000000     N
    N   1.0     0.679600     0.375025     0.140032  Biso 1.000000     N
    N   1.0     0.679599     0.875046     0.140025  Biso 1.000000     N
    N   1.0     0.358614     0.375007     0.468969  Biso 1.000000     N
    N   1.0     0.358615     0.875013     0.468974  Biso 1.000000     N
    N   1.0     0.858581     0.375005     0.468965  Biso 1.000000     N
    N   1.0     0.858565     0.875009     0.468956  Biso 1.000000     N
    N   1.0     0.342518     0.375026     0.344045  Biso 1.000000     N
    N   1.0     0.342516     0.875042     0.344051  Biso 1.000000     N
    N   1.0     0.842490     0.375005     0.344041  Biso 1.000000     N
    N   1.0     0.842477     0.875015     0.344032  Biso 1.000000     N
    N   1.0     0.430060     0.374988     0.359680  Biso 1.000000     N
    N   1.0     0.430059     0.874989     0.359685  Biso 1.000000     N
    N   1.0     0.930031     0.374981     0.359678  Biso 1.000000     N
    N   1.0     0.930018     0.874985     0.359670  Biso 1.000000     N
    N   1.0     0.392257     0.124999     0.969029  Biso 1.000000     N
    N   1.0     0.392248     0.625020     0.969034  Biso 1.000000     N
    N   1.0     0.892250     0.125039     0.969025  Biso 1.000000     N
    N   1.0     0.892240     0.625017     0.969027  Biso 1.000000     N
    N   1.0     0.407881     0.125026     0.844079  Biso 1.000000     N
    N   1.0     0.407868     0.625039     0.844083  Biso 1.000000     N
    N   1.0     0.907864     0.125013     0.844075  Biso 1.000000     N
    N   1.0     0.907856     0.625009     0.844077  Biso 1.000000     N
    N   1.0     0.320397     0.124984     0.859951  Biso 1.000000     N
    N   1.0     0.320385     0.624989     0.859960  Biso 1.000000     N
    N   1.0     0.820382     0.125000     0.859952  Biso 1.000000     N
    N   1.0     0.820373     0.625015     0.859954  Biso 1.000000     N
   Zn   1.0     0.203929     0.124956     0.424608  Biso 1.000000    Zn
   Zn   1.0     0.203931     0.624963     0.424611  Biso 1.000000    Zn
   Zn   1.0     0.703914     0.124955     0.424605  Biso 1.000000    Zn
   Zn   1.0     0.703925     0.624963     0.424604  Biso 1.000000    Zn
   Zn   1.0     0.233214     0.125003     0.765483  Biso 1.000000    Zn
   Zn   1.0     0.233211     0.625010     0.765486  Biso 1.000000    Zn
   Zn   1.0     0.733200     0.124996     0.765486  Biso 1.000000    Zn
   Zn   1.0     0.733197     0.625002     0.765487  Biso 1.000000    Zn
   Zn   1.0     0.044763     0.374995     0.924596  Biso 1.000000    Zn
   Zn   1.0     0.044768     0.875005     0.924596  Biso 1.000000    Zn
   Zn   1.0     0.544741     0.374967     0.924581  Biso 1.000000    Zn
   Zn   1.0     0.544735     0.874975     0.924580  Biso 1.000000    Zn
   Zn   1.0     0.017459     0.375000     0.265354  Biso 1.000000    Zn
   Zn   1.0     0.017453     0.875007     0.265352  Biso 1.000000    Zn
   Zn   1.0     0.517449     0.375001     0.265353  Biso 1.000000    Zn
   Zn   1.0     0.517446     0.875004     0.265355  Biso 1.000000    Zn
   Zn   1.0     0.296085     0.375061     0.575388  Biso 1.000000    Zn
   Zn   1.0     0.296080     0.875066     0.575391  Biso 1.000000    Zn
   Zn   1.0     0.796058     0.375060     0.575387  Biso 1.000000    Zn
   Zn   1.0     0.796055     0.875066     0.575384  Biso 1.000000    Zn
   Zn   1.0     0.266795     0.375018     0.234509  Biso 1.000000    Zn
   Zn   1.0     0.266791     0.875028     0.234513  Biso 1.000000    Zn
   Zn   1.0     0.766782     0.375011     0.234505  Biso 1.000000    Zn
   Zn   1.0     0.766777     0.875021     0.234503  Biso 1.000000    Zn
   Zn   1.0     0.455236     0.125046     0.075415  Biso 1.000000    Zn
   Zn   1.0     0.455230     0.625056     0.075415  Biso 1.000000    Zn
   Zn   1.0     0.955220     0.125019     0.075398  Biso 1.000000    Zn
   Zn   1.0     0.955214     0.625025     0.075398  Biso 1.000000    Zn
   Zn   1.0     0.482596     0.125014     0.734642  Biso 1.000000    Zn
   Zn   1.0     0.482606     0.625025     0.734640  Biso 1.000000    Zn
   Zn   1.0     0.982573     0.125016     0.734643  Biso 1.000000    Zn
   Zn   1.0     0.982580     0.625022     0.734644  Biso 1.000000    Zn
