#======================================================================

# CRYSTAL DATA

#----------------------------------------------------------------------

data_VESTA_phase_1


_pd_phase_name                         MOF
_cell_length_a                         20.52100
_cell_length_b                         16.61600
_cell_length_c                         19.79800
_cell_angle_alpha                      89.96500
_cell_angle_beta                       101.65100
_cell_angle_gamma                      90.04100
_symmetry_space_group_name_H-M         "P 1"
_symmetry_Int_Tables_number            1

loop_
_symmetry_equiv_pos_as_xyz
   "x, y, z"

loop_
   _atom_site_label
   _atom_site_occupancy
   _atom_site_fract_x
   _atom_site_fract_y
   _atom_site_fract_z
   _atom_site_adp_type
   _atom_site_B_iso_or_equiv
   _atom_site_type_symbol
    H   1.0     0.282447     0.058697     0.714594  Biso 1.000000     H
    H   1.0     0.782443     0.058696     0.714593  Biso 1.000000     H
    H   1.0     0.358943     0.291829     0.671615  Biso 1.000000     H
    H   1.0     0.858984     0.291807     0.671624  Biso 1.000000     H
    H   1.0     0.452845     0.199406     0.708394  Biso 1.000000     H
    H   1.0     0.952866     0.199375     0.708413  Biso 1.000000     H
    H   1.0     0.101831     0.269334     0.883795  Biso 1.000000     H
    H   1.0     0.601829     0.269334     0.883769  Biso 1.000000     H
    H   1.0     0.020671     0.254945     0.959844  Biso 1.000000     H
    H   1.0     0.520679     0.254941     0.959828  Biso 1.000000     H
    H   1.0     0.189783     0.184451     0.872938  Biso 1.000000     H
    H   1.0     0.689775     0.184423     0.872930  Biso 1.000000     H
    H   1.0     0.226640     0.087612     0.891186  Biso 1.000000     H
    H   1.0     0.726644     0.087593     0.891198  Biso 1.000000     H
    H   1.0     0.180716     0.197920    -0.002053  Biso 1.000000     H
    H   1.0     0.680704     0.197921    -0.002064  Biso 1.000000     H
    H   1.0     0.136283     0.112828     0.958133  Biso 1.000000     H
    H   1.0     0.636281     0.112814     0.958137  Biso 1.000000     H
    H   1.0     0.215231     0.099974     0.000000  Biso 1.000000     H
    H   1.0     0.715230     0.099983     0.000000  Biso 1.000000     H
    H   1.0     0.254420     0.164236     0.800029  Biso 1.000000     H
    H   1.0     0.754423     0.164228     0.800023  Biso 1.000000     H
    H   1.0     0.388963     0.070680     0.971051  Biso 1.000000     H
    H   1.0     0.888945     0.070675     0.971059  Biso 1.000000     H
    H   1.0     0.397770     0.960728     0.056892  Biso 1.000000     H
    H   1.0     0.897754     0.960729     0.056906  Biso 1.000000     H
    H   1.0     0.459626     0.129791     0.221945  Biso 1.000000     H
    H   1.0     0.959615     0.129801     0.221950  Biso 1.000000     H
    H   1.0     0.459140     0.385068     0.109777  Biso 1.000000     H
    H   1.0     0.959131     0.385070     0.109773  Biso 1.000000     H
    H   1.0     0.488060     0.451270     0.015022  Biso 1.000000     H
    H   1.0     0.988051     0.451269     0.015023  Biso 1.000000     H
    H   1.0     0.406258     0.468544     0.030304  Biso 1.000000     H
    H   1.0     0.906245     0.468539     0.030298  Biso 1.000000     H
    H   1.0     0.364785     0.498939     0.905409  Biso 1.000000     H
    H   1.0     0.864780     0.498934     0.905401  Biso 1.000000     H
    H   1.0     0.434347     0.561801     0.939097  Biso 1.000000     H
    H   1.0     0.934337     0.561799     0.939097  Biso 1.000000     H
    H   1.0     0.444724     0.476969     0.887785  Biso 1.000000     H
    H   1.0     0.944724     0.476972     0.887785  Biso 1.000000     H
    H   1.0     0.081816     0.281657     0.211244  Biso 1.000000     H
    H   1.0     0.581827     0.281659     0.211258  Biso 1.000000     H
    H   1.0     0.037065     0.357932     0.404014  Biso 1.000000     H
    H   1.0     0.537058     0.357909     0.404026  Biso 1.000000     H
    H   1.0     0.377884     0.289630     0.236550  Biso 1.000000     H
    H   1.0     0.877877     0.289656     0.236550  Biso 1.000000     H
    H   1.0     0.217540     0.558773     0.285466  Biso 1.000000     H
    H   1.0     0.717538     0.558784     0.285501  Biso 1.000000     H
    H   1.0     0.141088     0.791787     0.328286  Biso 1.000000     H
    H   1.0     0.641069     0.791787     0.328322  Biso 1.000000     H
    H   1.0     0.047179     0.699367     0.291597  Biso 1.000000     H
    H   1.0     0.547164     0.699358     0.291617  Biso 1.000000     H
    H   1.0     0.398231     0.769306     0.116212  Biso 1.000000     H
    H   1.0     0.898240     0.769346     0.116207  Biso 1.000000     H
    H   1.0     0.479354     0.754946     0.040152  Biso 1.000000     H
    H   1.0     0.979355     0.754983     0.040138  Biso 1.000000     H
    H   1.0     0.310189     0.684460     0.127052  Biso 1.000000     H
    H   1.0     0.810193     0.684465     0.127085  Biso 1.000000     H
    H   1.0     0.273233     0.587620     0.108891  Biso 1.000000     H
    H   1.0     0.773240     0.587622     0.108930  Biso 1.000000     H
    H   1.0     0.319293     0.697909     0.000000  Biso 1.000000     H
    H   1.0     0.819299     0.697906     0.000000  Biso 1.000000     H
    H   1.0     0.363633     0.612814     0.041943  Biso 1.000000     H
    H   1.0     0.863636     0.612810     0.041978  Biso 1.000000     H
    H   1.0     0.284680     0.599950    -0.014638  Biso 1.000000     H
    H   1.0     0.784683     0.599949    -0.014603  Biso 1.000000     H
    H   1.0     0.245541     0.664238     0.199955  Biso 1.000000     H
    H   1.0     0.745541     0.664251     0.199992  Biso 1.000000     H
    H   1.0     0.111005     0.570752     0.029009  Biso 1.000000     H
    H   1.0     0.611024     0.570731     0.029030  Biso 1.000000     H
    H   1.0     0.102220     0.460871     0.943236  Biso 1.000000     H
    H   1.0     0.602240     0.460853     0.943254  Biso 1.000000     H
    H   1.0     0.040420     0.629918     0.778076  Biso 1.000000     H
    H   1.0     0.540396     0.629898     0.778101  Biso 1.000000     H
    H   1.0     0.040834     0.885127     0.890091  Biso 1.000000     H
    H   1.0     0.540815     0.885104     0.890123  Biso 1.000000     H
    H   1.0     0.011898     0.951192     0.984830  Biso 1.000000     H
    H   1.0     0.511902     0.951174     0.984866  Biso 1.000000     H
    H   1.0     0.093693     0.968686     0.969546  Biso 1.000000     H
    H   1.0     0.593696     0.968659     0.969575  Biso 1.000000     H
    H   1.0     0.135140    -0.000967     0.094448  Biso 1.000000     H
    H   1.0     0.635155    -0.001001     0.094476  Biso 1.000000     H
    H   1.0     0.065572     0.061787     0.060713  Biso 1.000000     H
    H   1.0     0.565588     0.061761     0.060750  Biso 1.000000     H
    H   1.0     0.055197     0.976870     0.112053  Biso 1.000000     H
    H   1.0     0.555212     0.976843     0.112088  Biso 1.000000     H
    H   1.0     0.418142     0.781772     0.788755  Biso 1.000000     H
    H   1.0     0.918168     0.781803     0.788748  Biso 1.000000     H
    H   1.0     0.462918     0.857809     0.595838  Biso 1.000000     H
    H   1.0     0.962906     0.857783     0.595800  Biso 1.000000     H
    H   1.0     0.122071     0.789463     0.763259  Biso 1.000000     H
    H   1.0     0.622058     0.789474     0.763316  Biso 1.000000     H
    C   1.0     0.311308     0.290033     0.532603  Biso 1.000000     C
    C   1.0     0.811348     0.290023     0.532610  Biso 1.000000     C
    C   1.0     0.302181     0.228529     0.584428  Biso 1.000000     C
    C   1.0     0.802221     0.228516     0.584432  Biso 1.000000     C
    C   1.0     0.264949     0.160056     0.565247  Biso 1.000000     C
    C   1.0     0.764981     0.160050     0.565246  Biso 1.000000     C
    C   1.0     0.256497     0.098406     0.609168  Biso 1.000000     C
    C   1.0     0.756515     0.098405     0.609164  Biso 1.000000     C
    C   1.0     0.287353     0.107430     0.679056  Biso 1.000000     C
    C   1.0     0.787363     0.107426     0.679055  Biso 1.000000     C
    C   1.0     0.323590     0.176982     0.702688  Biso 1.000000     C
    C   1.0     0.823608     0.176970     0.702691  Biso 1.000000     C
    C   1.0     0.331195     0.236986     0.654833  Biso 1.000000     C
    C   1.0     0.831230     0.236970     0.654838  Biso 1.000000     C
    C   1.0     0.218332     0.024320     0.585730  Biso 1.000000     C
    C   1.0     0.718340     0.024326     0.585728  Biso 1.000000     C
    C   1.0     0.350075     0.187549     0.777638  Biso 1.000000     C
    C   1.0     0.850084     0.187535     0.777643  Biso 1.000000     C
    C   1.0     0.417912     0.208211     0.805030  Biso 1.000000     C
    C   1.0     0.917920     0.208196     0.805041  Biso 1.000000     C
    C   1.0     0.466447     0.213204     0.763135  Biso 1.000000     C
    C   1.0     0.966461     0.213182     0.763153  Biso 1.000000     C
    C   1.0     0.031004     0.234495     0.791697  Biso 1.000000     C
    C   1.0     0.530992     0.234511     0.791674  Biso 1.000000     C
    C   1.0     0.050811     0.251138     0.862825  Biso 1.000000     C
    C   1.0     0.550807     0.251143     0.862803  Biso 1.000000     C
    C   1.0     0.005215     0.243825     0.904723  Biso 1.000000     C
    C   1.0     0.505216     0.243828     0.904706  Biso 1.000000     C
    C   1.0     0.437853     0.222169     0.878043  Biso 1.000000     C
    C   1.0     0.937852     0.222160     0.878054  Biso 1.000000     C
    C   1.0     0.391432     0.213592     0.922274  Biso 1.000000     C
    C   1.0     0.891426     0.213586     0.922277  Biso 1.000000     C
    C   1.0     0.326239     0.190725     0.893730  Biso 1.000000     C
    C   1.0     0.826234     0.190718     0.893728  Biso 1.000000     C
    C   1.0     0.219570     0.146925     0.913701  Biso 1.000000     C
    C   1.0     0.719566     0.146910     0.913701  Biso 1.000000     C
    C   1.0     0.186137     0.138842     0.974874  Biso 1.000000     C
    C   1.0     0.686133     0.138838     0.974875  Biso 1.000000     C
    C   1.0     0.306190     0.178157     0.821962  Biso 1.000000     C
    C   1.0     0.806192     0.178147     0.821961  Biso 1.000000     C
    C   1.0     0.411736     0.229150     0.997483  Biso 1.000000     C
    C   1.0     0.911723     0.229148     0.997486  Biso 1.000000     C
    C   1.0     0.417793     0.165388     0.046451  Biso 1.000000     C
    C   1.0     0.917777     0.165387     0.046455  Biso 1.000000     C
    C   1.0     0.403935     0.084096     0.025832  Biso 1.000000     C
    C   1.0     0.903918     0.084095     0.025839  Biso 1.000000     C
    C   1.0     0.408736     0.022706     0.073297  Biso 1.000000     C
    C   1.0     0.908721     0.022708     0.073308  Biso 1.000000     C
    C   1.0     0.428691     0.040052     0.144398  Biso 1.000000     C
    C   1.0     0.928678     0.040057     0.144408  Biso 1.000000     C
    C   1.0     0.443764     0.117473     0.167087  Biso 1.000000     C
    C   1.0     0.943751     0.117480     0.167093  Biso 1.000000     C
    C   1.0     0.438574     0.181801     0.118984  Biso 1.000000     C
    C   1.0     0.938559     0.181804     0.118986  Biso 1.000000     C
    C   1.0     0.453963     0.262659     0.140506  Biso 1.000000     C
    C   1.0     0.953949     0.262663     0.140505  Biso 1.000000     C
    C   1.0     0.447563     0.323756     0.092036  Biso 1.000000     C
    C   1.0     0.947552     0.323758     0.092034  Biso 1.000000     C
    C   1.0     0.425630     0.307824     0.020887  Biso 1.000000     C
    C   1.0     0.925620     0.307822     0.020886  Biso 1.000000     C
    C   1.0     0.434553     0.448427     0.991594  Biso 1.000000     C
    C   1.0     0.934545     0.448424     0.991591  Biso 1.000000     C
    C   1.0     0.418440     0.499416     0.927031  Biso 1.000000     C
    C   1.0     0.918435     0.499414     0.927028  Biso 1.000000     C
    C   1.0     0.476929     0.284049     0.214611  Biso 1.000000     C
    C   1.0     0.976919     0.284059     0.214606  Biso 1.000000     C
    C   1.0     0.044845     0.293755     0.242451  Biso 1.000000     C
    C   1.0     0.544853     0.293751     0.242462  Biso 1.000000     C
    C   1.0     0.066436     0.319624     0.310675  Biso 1.000000     C
    C   1.0     0.566438     0.319610     0.310689  Biso 1.000000     C
    C   1.0     0.019972     0.336468     0.351518  Biso 1.000000     C
    C   1.0     0.519969     0.336445     0.351529  Biso 1.000000     C
    C   1.0     0.452180     0.324830     0.324763  Biso 1.000000     C
    C   1.0     0.952178     0.324866     0.324755  Biso 1.000000     C
    C   1.0     0.430908     0.298042     0.256655  Biso 1.000000     C
    C   1.0     0.930902     0.298064     0.256652  Biso 1.000000     C
    C   1.0     0.138751     0.329791     0.340072  Biso 1.000000     C
    C   1.0     0.638752     0.329783     0.340094  Biso 1.000000     C
    C   1.0     0.401661     0.342368     0.367249  Biso 1.000000     C
    C   1.0     0.901661     0.342425     0.367238  Biso 1.000000     C
    C   1.0     0.188771     0.790027     0.467281  Biso 1.000000     C
    C   1.0     0.688747     0.790023     0.467319  Biso 1.000000     C
    C   1.0     0.197868     0.728547     0.415499  Biso 1.000000     C
    C   1.0     0.697847     0.728546     0.415536  Biso 1.000000     C
    C   1.0     0.235118     0.660132     0.434729  Biso 1.000000     C
    C   1.0     0.735098     0.660133     0.434767  Biso 1.000000     C
    C   1.0     0.243562     0.598510     0.390856  Biso 1.000000     C
    C   1.0     0.743548     0.598516     0.390893  Biso 1.000000     C
    C   1.0     0.212660     0.607493     0.320970  Biso 1.000000     C
    C   1.0     0.712653     0.607501     0.321005  Biso 1.000000     C
    C   1.0     0.176415     0.676990     0.297292  Biso 1.000000     C
    C   1.0     0.676405     0.676996     0.297325  Biso 1.000000     C
    C   1.0     0.168829     0.736975     0.345099  Biso 1.000000     C
    C   1.0     0.668812     0.736976     0.345134  Biso 1.000000     C
    C   1.0     0.281745     0.524465     0.414286  Biso 1.000000     C
    C   1.0     0.781734     0.524473     0.414320  Biso 1.000000     C
    C   1.0     0.149918     0.687547     0.222341  Biso 1.000000     C
    C   1.0     0.649913     0.687549     0.222372  Biso 1.000000     C
    C   1.0     0.082102     0.708216     0.194947  Biso 1.000000     C
    C   1.0     0.582095     0.708205     0.194971  Biso 1.000000     C
    C   1.0     0.033581     0.713187     0.236850  Biso 1.000000     C
    C   1.0     0.533569     0.713172     0.236869  Biso 1.000000     C
    C   1.0     0.469042     0.734475     0.208325  Biso 1.000000     C
    C   1.0     0.969054     0.734501     0.208313  Biso 1.000000     C
    C   1.0     0.449238     0.751123     0.137185  Biso 1.000000     C
    C   1.0     0.949246     0.751157     0.137175  Biso 1.000000     C
    C   1.0     0.494817     0.743826     0.095280  Biso 1.000000     C
    C   1.0     0.994821     0.743857     0.095264  Biso 1.000000     C
    C   1.0     0.062167     0.722195     0.121927  Biso 1.000000     C
    C   1.0     0.562162     0.722173     0.121949  Biso 1.000000     C
    C   1.0     0.108575     0.713635     0.077694  Biso 1.000000     C
    C   1.0     0.608574     0.713615     0.077720  Biso 1.000000     C
    C   1.0     0.173745     0.690743     0.106242  Biso 1.000000     C
    C   1.0     0.673745     0.690736     0.106274  Biso 1.000000     C
    C   1.0     0.280369     0.646927     0.086321  Biso 1.000000     C
    C   1.0     0.780374     0.646928     0.086356  Biso 1.000000     C
    C   1.0     0.313805     0.638827     0.025164  Biso 1.000000     C
    C   1.0     0.813809     0.638826     0.025198  Biso 1.000000     C
    C   1.0     0.193785     0.678164     0.178016  Biso 1.000000     C
    C   1.0     0.693784     0.678168     0.178050  Biso 1.000000     C
    C   1.0     0.088273     0.729213     0.002478  Biso 1.000000     C
    C   1.0     0.588271     0.729189     0.002504  Biso 1.000000     C
    C   1.0     0.082218     0.665478     0.953549  Biso 1.000000     C
    C   1.0     0.582214     0.665455     0.953574  Biso 1.000000     C
    C   1.0     0.096058     0.584193     0.974219  Biso 1.000000     C
    C   1.0     0.596066     0.584171     0.974241  Biso 1.000000     C
    C   1.0     0.091267     0.522825     0.926791  Biso 1.000000     C
    C   1.0     0.591276     0.522805     0.926812  Biso 1.000000     C
    C   1.0     0.071340     0.540185     0.855678  Biso 1.000000     C
    C   1.0     0.571337     0.540166     0.855700  Biso 1.000000     C
    C   1.0     0.056270     0.617596     0.832942  Biso 1.000000     C
    C   1.0     0.556255     0.617575     0.832967  Biso 1.000000     C
    C   1.0     0.061444     0.681903     0.881008  Biso 1.000000     C
    C   1.0     0.561428     0.681880     0.881034  Biso 1.000000     C
    C   1.0     0.046035     0.762747     0.859434  Biso 1.000000     C
    C   1.0     0.546011     0.762724     0.859463  Biso 1.000000     C
    C   1.0     0.052422     0.823825     0.907869  Biso 1.000000     C
    C   1.0     0.552405     0.823801     0.907899  Biso 1.000000     C
    C   1.0     0.074370     0.807891     0.979028  Biso 1.000000     C
    C   1.0     0.574364     0.807866     0.979055  Biso 1.000000     C
    C   1.0     0.065406     0.948446     0.008261  Biso 1.000000     C
    C   1.0     0.565411     0.948421     0.008293  Biso 1.000000     C
    C   1.0     0.081488    -0.000578     0.072809  Biso 1.000000     C
    C   1.0     0.581501    -0.000607     0.072842  Biso 1.000000     C
    C   1.0     0.023052     0.784097     0.785310  Biso 1.000000     C
    C   1.0     0.523030     0.784081     0.785340  Biso 1.000000     C
    C   1.0     0.455112     0.793822     0.757512  Biso 1.000000     C
    C   1.0     0.955130     0.793839     0.757493  Biso 1.000000     C
    C   1.0     0.433528     0.819622     0.689249  Biso 1.000000     C
    C   1.0     0.933535     0.819626     0.689228  Biso 1.000000     C
    C   1.0     0.479998     0.836365     0.648357  Biso 1.000000     C
    C   1.0     0.979995     0.836351     0.648321  Biso 1.000000     C
    C   1.0     0.047771     0.824618     0.675035  Biso 1.000000     C
    C   1.0     0.547771     0.824637     0.675084  Biso 1.000000     C
    C   1.0     0.069055     0.797933     0.743187  Biso 1.000000     C
    C   1.0     0.569043     0.797938     0.743233  Biso 1.000000     C
    C   1.0     0.361222     0.829811     0.659840  Biso 1.000000     C
    C   1.0     0.861226     0.829810     0.659832  Biso 1.000000     C
    C   1.0     0.098259     0.841915     0.632427  Biso 1.000000     C
    C   1.0     0.598272     0.841957     0.632496  Biso 1.000000     C
    O   1.0     0.283492     0.277884     0.470372  Biso 1.000000     O
    O   1.0     0.783511     0.277889     0.470381  Biso 1.000000     O
    O   1.0     0.348079     0.351324     0.554797  Biso 1.000000     O
    O   1.0     0.848132     0.351303     0.554802  Biso 1.000000     O
    O   1.0     0.178886     0.024881     0.526087  Biso 1.000000     O
    O   1.0     0.678889     0.024887     0.526088  Biso 1.000000     O
    O   1.0     0.224946     0.963751     0.625674  Biso 1.000000     O
    O   1.0     0.724948     0.963761     0.625675  Biso 1.000000     O
    O   1.0     0.181512     0.305549     0.304670  Biso 1.000000     O
    O   1.0     0.681516     0.305546     0.304696  Biso 1.000000     O
    O   1.0     0.158051     0.361474     0.398993  Biso 1.000000     O
    O   1.0     0.658046     0.361468     0.399016  Biso 1.000000     O
    O   1.0     0.422467     0.381847     0.423842  Biso 1.000000     O
    O   1.0     0.922480     0.381856     0.423853  Biso 1.000000     O
    O   1.0     0.342697     0.318177     0.345076  Biso 1.000000     O
    O   1.0     0.842682     0.318301     0.345039  Biso 1.000000     O
    O   1.0     0.283629     0.183796     0.938258  Biso 1.000000     O
    O   1.0     0.783620     0.183795     0.938253  Biso 1.000000     O
    O   1.0     0.416604     0.366595     0.971712  Biso 1.000000     O
    O   1.0     0.916601     0.366590     0.971708  Biso 1.000000     O
    O   1.0     0.216622     0.777885     0.529499  Biso 1.000000     O
    O   1.0     0.716595     0.777881     0.529539  Biso 1.000000     O
    O   1.0     0.152009     0.851292     0.445067  Biso 1.000000     O
    O   1.0     0.651987     0.851289     0.445101  Biso 1.000000     O
    O   1.0     0.321298     0.524991     0.473869  Biso 1.000000     O
    O   1.0     0.821286     0.524990     0.473904  Biso 1.000000     O
    O   1.0     0.275032     0.463948     0.374367  Biso 1.000000     O
    O   1.0     0.775022     0.463962     0.374396  Biso 1.000000     O
    O   1.0     0.318430     0.805553     0.695250  Biso 1.000000     O
    O   1.0     0.818445     0.805557     0.695258  Biso 1.000000     O
    O   1.0     0.341965     0.861500     0.600897  Biso 1.000000     O
    O   1.0     0.841957     0.861500     0.600891  Biso 1.000000     O
    O   1.0     0.077553     0.881821     0.576014  Biso 1.000000     O
    O   1.0     0.577563     0.881825     0.576063  Biso 1.000000     O
    O   1.0     0.157072     0.817100     0.654302  Biso 1.000000     O
    O   1.0     0.657095     0.817195     0.654408  Biso 1.000000     O
    O   1.0     0.216349     0.683803     0.061721  Biso 1.000000     O
    O   1.0     0.716352     0.683799     0.061755  Biso 1.000000     O
    O   1.0     0.083401     0.866638     0.028171  Biso 1.000000     O
    O   1.0     0.583400     0.866610     0.028200  Biso 1.000000     O
   Cl   1.0     0.090424     0.240629     0.739897  Biso 1.000000    Cl
   Cl   1.0     0.590405     0.240650     0.739867  Biso 1.000000    Cl
   Cl   1.0     0.434843     0.960907     0.203251  Biso 1.000000    Cl
   Cl   1.0     0.934833     0.960915     0.203264  Biso 1.000000    Cl
   Cl   1.0     0.409641     0.740580     0.260136  Biso 1.000000    Cl
   Cl   1.0     0.909660     0.740613     0.260131  Biso 1.000000    Cl
   Cl   1.0     0.065212     0.461087     0.796871  Biso 1.000000    Cl
   Cl   1.0     0.565211     0.461071     0.796890  Biso 1.000000    Cl
   Zn   1.0     0.258619     0.340101     0.379862  Biso 1.000000    Zn
   Zn   1.0     0.758619     0.340110     0.379881  Biso 1.000000    Zn
   Zn   1.0     0.363700     0.419806     0.480704  Biso 1.000000    Zn
   Zn   1.0     0.863704     0.419814     0.480707  Biso 1.000000    Zn
   Zn   1.0     0.241348     0.840011     0.620023  Biso 1.000000    Zn
   Zn   1.0     0.741347     0.840016     0.620054  Biso 1.000000    Zn
   Zn   1.0     0.136354     0.919705     0.519122  Biso 1.000000    Zn
   Zn   1.0     0.636350     0.919713     0.519153  Biso 1.000000    Zn
