#======================================================================

# CRYSTAL DATA

#----------------------------------------------------------------------

data_VESTA_phase_1


_pd_phase_name                         MOF
_cell_length_a                         13.25400
_cell_length_b                         13.18600
_cell_length_c                         13.15600
_cell_angle_alpha                      93.74100
_cell_angle_beta                       96.04100
_cell_angle_gamma                      83.68700
_symmetry_space_group_name_H-M         "P 1"
_symmetry_Int_Tables_number            1

loop_
_symmetry_equiv_pos_as_xyz
   "x, y, z"

loop_
   _atom_site_label
   _atom_site_occupancy
   _atom_site_fract_x
   _atom_site_fract_y
   _atom_site_fract_z
   _atom_site_adp_type
   _atom_site_B_iso_or_equiv
   _atom_site_type_symbol
    H   1.0     0.395320     0.184343     0.731287  Biso 1.000000     H
    H   1.0     0.541854     0.117227     0.640425  Biso 1.000000     H
    H   1.0     0.337762     0.936597     0.441814  Biso 1.000000     H
    H   1.0     0.199719     0.013088     0.540804  Biso 1.000000     H
    H   1.0     0.975229     0.216957     0.589607  Biso 1.000000     H
    H   1.0     0.898886     0.358054     0.483689  Biso 1.000000     H
    H   1.0     0.154141     0.524491     0.601557  Biso 1.000000     H
    H   1.0     0.219983     0.374306     0.702947  Biso 1.000000     H
    H   1.0     0.062532     0.862777     0.701566  Biso 1.000000     H
    H   1.0     0.959563     0.718710     0.701850  Biso 1.000000     H
    H   1.0     0.699975     0.931526     0.768729  Biso 1.000000     H
    H   1.0     0.099503     0.732192     0.181433  Biso 1.000000     H
    H   1.0     0.953852     0.640440     0.115828  Biso 1.000000     H
    H   1.0     0.159679     0.440259     0.936665  Biso 1.000000     H
    H   1.0     0.296950     0.539924     0.011842  Biso 1.000000     H
    H   1.0     0.521641     0.591191     0.215959  Biso 1.000000     H
    H   1.0     0.599522     0.486317     0.357303  Biso 1.000000     H
    H   1.0     0.341265     0.599081     0.523658  Biso 1.000000     H
    H   1.0     0.274407     0.700036     0.373683  Biso 1.000000     H
    H   1.0     0.436769     0.703324     0.861673  Biso 1.000000     H
    H   1.0     0.541548     0.701617     0.717853  Biso 1.000000     H
    H   1.0     0.798516     0.770050     0.931945  Biso 1.000000     H
    H   1.0     0.601144     0.816282     0.268906  Biso 1.000000     H
    H   1.0     0.454783     0.882957     0.360341  Biso 1.000000     H
    H   1.0     0.658953     0.063623     0.558720  Biso 1.000000     H
    H   1.0     0.796939     0.987305     0.459466  Biso 1.000000     H
    H   1.0     0.022042     0.782668     0.408925  Biso 1.000000     H
    H   1.0     0.099020     0.641219     0.514056  Biso 1.000000     H
    H   1.0     0.841686     0.476346     0.399551  Biso 1.000000     H
    H   1.0     0.775773     0.626388     0.298196  Biso 1.000000     H
    H   1.0     0.935810     0.137776     0.300370  Biso 1.000000     H
    H   1.0     0.039274     0.281514     0.299368  Biso 1.000000     H
    H   1.0     0.297615     0.067839     0.230870  Biso 1.000000     H
    H   1.0     0.897229     0.267105     0.817985  Biso 1.000000     H
    H   1.0     0.042990     0.358452     0.883900  Biso 1.000000     H
    H   1.0     0.837418     0.558200     0.063820  Biso 1.000000     H
    H   1.0     0.700055     0.458914     0.988268  Biso 1.000000     H
    H   1.0     0.474928     0.407181     0.781930  Biso 1.000000     H
    H   1.0     0.397067     0.511757     0.640311  Biso 1.000000     H
    H   1.0     0.657823     0.402547     0.476196  Biso 1.000000     H
    H   1.0     0.723979     0.300720     0.625891  Biso 1.000000     H
    H   1.0     0.561640     0.294716     0.136747  Biso 1.000000     H
    H   1.0     0.457754     0.295803     0.280927  Biso 1.000000     H
    H   1.0     0.199458     0.228990     0.067825  Biso 1.000000     H
    C   1.0     0.384999     0.131195     0.665084  Biso 1.000000     C
    C   1.0     0.467954     0.091640     0.613355  Biso 1.000000     C
    C   1.0     0.455182     0.020784     0.529795  Biso 1.000000     C
    C   1.0     0.356196    -0.008294     0.504426  Biso 1.000000     C
    C   1.0     0.276837     0.034573     0.559410  Biso 1.000000     C
    C   1.0     0.013191     0.286135     0.588846  Biso 1.000000     C
    C   1.0     0.970686     0.366779     0.530005  Biso 1.000000     C
    C   1.0     0.019684     0.456229     0.530942  Biso 1.000000     C
    C   1.0     0.111307     0.458169     0.594768  Biso 1.000000     C
    C   1.0     0.149989     0.374752     0.651206  Biso 1.000000     C
    C   1.0     0.010076     0.060446     0.731496  Biso 1.000000     C
    C   1.0     0.940342     0.977969     0.729285  Biso 1.000000     C
    C   1.0     0.982306     0.876755     0.714684  Biso 1.000000     C
    C   1.0     0.923860     0.795697     0.716241  Biso 1.000000     C
    C   1.0     0.821352     0.813946     0.735699  Biso 1.000000     C
    C   1.0     0.779304     0.915342     0.752592  Biso 1.000000     C
    C   1.0     0.836822     0.997544     0.747198  Biso 1.000000     C
    C   1.0     0.783316     0.104993     0.749320  Biso 1.000000     C
    C   1.0     0.812291     0.619425     0.736077  Biso 1.000000     C
    C   1.0     0.110437     0.665445     0.128990  Biso 1.000000     C
    C   1.0     0.027990     0.613264     0.090233  Biso 1.000000     C
    C   1.0     0.041473     0.529018     0.020231  Biso 1.000000     C
    C   1.0     0.140728     0.503481    -0.008904  Biso 1.000000     C
    C   1.0     0.219607     0.558863     0.033212  Biso 1.000000     C
    C   1.0     0.483401     0.589597     0.285175  Biso 1.000000     C
    C   1.0     0.526778     0.531300     0.366002  Biso 1.000000     C
    C   1.0     0.477440     0.531063     0.455554  Biso 1.000000     C
    C   1.0     0.384573     0.593270     0.457350  Biso 1.000000     C
    C   1.0     0.345149     0.649266     0.373802  Biso 1.000000     C
    C   1.0     0.487239     0.734695     0.060485  Biso 1.000000     C
    C   1.0     0.557601     0.731607     0.977649  Biso 1.000000     C
    C   1.0     0.516888     0.716267     0.876082  Biso 1.000000     C
    C   1.0     0.576354     0.716689     0.795069  Biso 1.000000     C
    C   1.0     0.678671     0.736071     0.813649  Biso 1.000000     C
    C   1.0     0.719395     0.753902     0.915352  Biso 1.000000     C
    C   1.0     0.661049     0.749265     0.997465  Biso 1.000000     C
    C   1.0     0.714348     0.751264     0.104958  Biso 1.000000     C
    C   1.0     0.691853     0.732404     0.618504  Biso 1.000000     C
    C   1.0     0.611538     0.869271     0.335244  Biso 1.000000     C
    C   1.0     0.528692     0.908631     0.387222  Biso 1.000000     C
    C   1.0     0.541533     0.979427     0.470831  Biso 1.000000     C
    C   1.0     0.640518     0.000000     0.496077  Biso 1.000000     C
    C   1.0     0.719809     0.965822     0.440920  Biso 1.000000     C
    C   1.0     0.983845     0.713709     0.410145  Biso 1.000000     C
    C   1.0     0.026662     0.632891     0.468620  Biso 1.000000     C
    C   1.0     0.977283     0.543759     0.468388  Biso 1.000000     C
    C   1.0     0.885014     0.542283     0.405557  Biso 1.000000     C
    C   1.0     0.846157     0.625776     0.349321  Biso 1.000000     C
    C   1.0     0.987613     0.939572     0.269097  Biso 1.000000     C
    C   1.0     0.057368     0.022182     0.271753  Biso 1.000000     C
    C   1.0     0.015903     0.123522     0.286765  Biso 1.000000     C
    C   1.0     0.074581     0.204396     0.284757  Biso 1.000000     C
    C   1.0     0.176851     0.185811     0.264508  Biso 1.000000     C
    C   1.0     0.218453     0.084300     0.247503  Biso 1.000000     C
    C   1.0     0.160744     0.002341     0.253282  Biso 1.000000     C
    C   1.0     0.214305     0.894946     0.250661  Biso 1.000000     C
    C   1.0     0.187369     0.380323     0.263795  Biso 1.000000     C
    C   1.0     0.886372     0.333663     0.870675  Biso 1.000000     C
    C   1.0     0.968903     0.385648     0.909594  Biso 1.000000     C
    C   1.0     0.955532     0.469714     0.979826  Biso 1.000000     C
    C   1.0     0.856337     0.495190     0.000000  Biso 1.000000     C
    C   1.0     0.777376     0.440005     0.966835  Biso 1.000000     C
    C   1.0     0.513539     0.409269     0.713006  Biso 1.000000     C
    C   1.0     0.470330     0.467588     0.632153  Biso 1.000000     C
    C   1.0     0.520407     0.468744     0.543188  Biso 1.000000     C
    C   1.0     0.613812     0.407352     0.541942  Biso 1.000000     C
    C   1.0     0.652897     0.351022     0.625370  Biso 1.000000     C
    C   1.0     0.510007     0.264670     0.938028  Biso 1.000000     C
    C   1.0     0.440108     0.267298     0.021158  Biso 1.000000     C
    C   1.0     0.481449     0.281981     0.122564  Biso 1.000000     C
    C   1.0     0.422404     0.281260     0.203857  Biso 1.000000     C
    C   1.0     0.319864     0.262511     0.185714  Biso 1.000000     C
    C   1.0     0.278672     0.244888     0.084167  Biso 1.000000     C
    C   1.0     0.336681     0.249610     0.001861  Biso 1.000000     C
    C   1.0     0.283298     0.247961     0.894538  Biso 1.000000     C
    C   1.0     0.307450     0.266972     0.380504  Biso 1.000000     C
    C   1.0     0.750805     0.727487     0.727924  Biso 1.000000     C
    C   1.0     0.247972     0.271714     0.271657  Biso 1.000000     C
    N   1.0     0.290128     0.104133     0.638487  Biso 1.000000     N
    N   1.0     0.102252     0.289132     0.648534  Biso 1.000000     N
    N   1.0     0.205592     0.638568     0.102031  Biso 1.000000     N
    N   1.0     0.393181     0.647747     0.288052  Biso 1.000000     N
    N   1.0     0.706413     0.896400     0.361738  Biso 1.000000     N
    N   1.0     0.894220     0.711122     0.351334  Biso 1.000000     N
    N   1.0     0.791252     0.360542     0.897709  Biso 1.000000     N
    N   1.0     0.604140     0.351741     0.710562  Biso 1.000000     N
    O   1.0     0.994925     0.142419     0.783977  Biso 1.000000     O
    O   1.0     0.088956     0.040376     0.679991  Biso 1.000000     O
    O   1.0     0.782227     0.155339     0.671543  Biso 1.000000     O
    O   1.0     0.738221     0.134211     0.830207  Biso 1.000000     O
    O   1.0     0.502600     0.786862     0.142454  Biso 1.000000     O
    O   1.0     0.408236     0.683748     0.040409  Biso 1.000000     O
    O   1.0     0.715051     0.673814     0.155535  Biso 1.000000     O
    O   1.0     0.760266     0.831252     0.133900  Biso 1.000000     O
    O   1.0     0.004305     0.857327     0.217528  Biso 1.000000     O
    O   1.0     0.907704     0.959620     0.319198  Biso 1.000000     O
    O   1.0     0.217338     0.844855     0.328875  Biso 1.000000     O
    O   1.0     0.257862     0.865574     0.168912  Biso 1.000000     O
    O   1.0     0.497174     0.209089     0.857928  Biso 1.000000     O
    O   1.0     0.586238     0.319708     0.956071  Biso 1.000000     O
    O   1.0     0.284692     0.324741     0.843486  Biso 1.000000     O
    O   1.0     0.235467     0.169102     0.866149  Biso 1.000000     O
    F   1.0     0.884010     0.617849     0.817760  Biso 1.000000     F
    F   1.0     0.862348     0.587259     0.652151  Biso 1.000000     F
    F   1.0     0.750625     0.546244     0.747119  Biso 1.000000     F
    F   1.0     0.618650     0.813002     0.613510  Biso 1.000000     F
    F   1.0     0.644329     0.647072     0.587390  Biso 1.000000     F
    F   1.0     0.755632     0.742540     0.546439  Biso 1.000000     F
    F   1.0     0.115691     0.382165     0.182190  Biso 1.000000     F
    F   1.0     0.137570     0.412667     0.347853  Biso 1.000000     F
    F   1.0     0.249301     0.453389     0.252852  Biso 1.000000     F
    F   1.0     0.380320     0.186327     0.386237  Biso 1.000000     F
    F   1.0     0.355648     0.352285     0.409073  Biso 1.000000     F
    F   1.0     0.244403     0.257762     0.453528  Biso 1.000000     F
   Zn   1.0     0.169399     0.159816     0.724721  Biso 1.000000    Zn
   Zn   1.0     0.325126     0.724798     0.158996  Biso 1.000000    Zn
   Zn   1.0     0.826668     0.840485     0.275225  Biso 1.000000    Zn
   Zn   1.0     0.671240     0.275155     0.840018  Biso 1.000000    Zn
