#======================================================================

# CRYSTAL DATA

#----------------------------------------------------------------------

data_VESTA_phase_1


_pd_phase_name                         MOF
_cell_length_a                         9.89800
_cell_length_b                         16.55800
_cell_length_c                         12.18700
_cell_angle_alpha                      89.96500
_cell_angle_beta                       89.97100
_cell_angle_gamma                      91.59200
_symmetry_space_group_name_H-M         "P 1"
_symmetry_Int_Tables_number            1

loop_
_symmetry_equiv_pos_as_xyz
   "x, y, z"

loop_
   _atom_site_label
   _atom_site_occupancy
   _atom_site_fract_x
   _atom_site_fract_y
   _atom_site_fract_z
   _atom_site_adp_type
   _atom_site_B_iso_or_equiv
   _atom_site_type_symbol
    H   1.0     0.351401     0.271568     0.524182  Biso 1.000000     H
    H   1.0     0.351395     0.771554     0.524187  Biso 1.000000     H
    H   1.0     0.851383     0.271567     0.524187  Biso 1.000000     H
    H   1.0     0.851378     0.771555     0.524182  Biso 1.000000     H
    H   1.0     0.486069     0.282218     0.618581  Biso 1.000000     H
    H   1.0     0.486064     0.782205     0.618585  Biso 1.000000     H
    H   1.0     0.986052     0.282218     0.618585  Biso 1.000000     H
    H   1.0     0.986047     0.782204     0.618581  Biso 1.000000     H
    H   1.0     0.148520     0.228449     0.024372  Biso 1.000000     H
    H   1.0     0.148515     0.728435     0.024367  Biso 1.000000     H
    H   1.0     0.648503     0.228449     0.024367  Biso 1.000000     H
    H   1.0     0.648498     0.728436     0.024372  Biso 1.000000     H
    H   1.0     0.013582     0.217716     0.118639  Biso 1.000000     H
    H   1.0     0.013577     0.717703     0.118635  Biso 1.000000     H
    H   1.0     0.513565     0.217716     0.118635  Biso 1.000000     H
    H   1.0     0.513559     0.717702     0.118639  Biso 1.000000     H
    H   1.0     0.148577     0.228415     0.475793  Biso 1.000000     H
    H   1.0     0.148572     0.728402     0.475788  Biso 1.000000     H
    H   1.0     0.648559     0.228415     0.475788  Biso 1.000000     H
    H   1.0     0.648554     0.728401     0.475793  Biso 1.000000     H
    H   1.0     0.013909     0.217765     0.381395  Biso 1.000000     H
    H   1.0     0.013903     0.717751     0.381390  Biso 1.000000     H
    H   1.0     0.513891     0.217765     0.381391  Biso 1.000000     H
    H   1.0     0.513886     0.717752     0.381394  Biso 1.000000     H
    H   1.0     0.351458     0.271534     0.975603  Biso 1.000000     H
    H   1.0     0.351453     0.771521     0.975608  Biso 1.000000     H
    H   1.0     0.851441     0.271534     0.975608  Biso 1.000000     H
    H   1.0     0.851435     0.771520     0.975603  Biso 1.000000     H
    H   1.0     0.486396     0.282267     0.881336  Biso 1.000000     H
    H   1.0     0.486391     0.782253     0.881340  Biso 1.000000     H
    H   1.0     0.986379     0.282267     0.881340  Biso 1.000000     H
    H   1.0     0.986375     0.782254     0.881336  Biso 1.000000     H
    C   1.0     0.461141     0.282382     0.530647  Biso 1.000000     C
    C   1.0     0.461136     0.782368     0.530651  Biso 1.000000     C
    C   1.0     0.961124     0.282382     0.530651  Biso 1.000000     C
    C   1.0     0.961119     0.782368     0.530647  Biso 1.000000     C
    C   1.0     0.038768     0.217603     0.030738  Biso 1.000000     C
    C   1.0     0.038763     0.717589     0.030734  Biso 1.000000     C
    C   1.0     0.538751     0.217602     0.030734  Biso 1.000000     C
    C   1.0     0.538746     0.717589     0.030738  Biso 1.000000     C
    C   1.0     0.038836     0.217601     0.469328  Biso 1.000000     C
    C   1.0     0.038832     0.717588     0.469324  Biso 1.000000     C
    C   1.0     0.538819     0.217601     0.469324  Biso 1.000000     C
    C   1.0     0.538814     0.717587     0.469328  Biso 1.000000     C
    C   1.0     0.461210     0.282380     0.969237  Biso 1.000000     C
    C   1.0     0.461205     0.782367     0.969241  Biso 1.000000     C
    C   1.0     0.961193     0.282381     0.969241  Biso 1.000000     C
    C   1.0     0.961187     0.782367     0.969237  Biso 1.000000     C
    O   1.0     0.399362     0.440576     0.540578  Biso 1.000000     O
    O   1.0     0.399357     0.940562     0.540580  Biso 1.000000     O
    O   1.0     0.899345     0.440576     0.540580  Biso 1.000000     O
    O   1.0     0.899339     0.940562     0.540578  Biso 1.000000     O
    O   1.0     0.144621     0.403682     0.503831  Biso 1.000000     O
    O   1.0     0.144617     0.903669     0.503832  Biso 1.000000     O
    O   1.0     0.644604     0.403683     0.503832  Biso 1.000000     O
    O   1.0     0.644598     0.903669     0.503831  Biso 1.000000     O
    O   1.0     0.469061     0.380187     0.354452  Biso 1.000000     O
    O   1.0     0.469049     0.880170     0.354454  Biso 1.000000     O
    O   1.0     0.969037     0.380183     0.354455  Biso 1.000000     O
    O   1.0     0.969039     0.880174     0.354452  Biso 1.000000     O
    O   1.0     0.100598     0.059389     0.040590  Biso 1.000000     O
    O   1.0     0.100593     0.559377     0.040589  Biso 1.000000     O
    O   1.0     0.600581     0.059390     0.040589  Biso 1.000000     O
    O   1.0     0.600575     0.559376     0.040590  Biso 1.000000     O
    O   1.0     0.355433     0.096286     0.003641  Biso 1.000000     O
    O   1.0     0.355429     0.596273     0.003640  Biso 1.000000     O
    O   1.0     0.855416     0.096287     0.003639  Biso 1.000000     O
    O   1.0     0.855410     0.596273     0.003641  Biso 1.000000     O
    O   1.0     0.031526     0.120173     0.854468  Biso 1.000000     O
    O   1.0     0.031514     0.620155     0.854466  Biso 1.000000     O
    O   1.0     0.531501     0.120169     0.854466  Biso 1.000000     O
    O   1.0     0.531503     0.620159     0.854468  Biso 1.000000     O
    O   1.0     0.100616     0.059407     0.459396  Biso 1.000000     O
    O   1.0     0.100610     0.559393     0.459395  Biso 1.000000     O
    O   1.0     0.600598     0.059407     0.459394  Biso 1.000000     O
    O   1.0     0.600593     0.559394     0.459396  Biso 1.000000     O
    O   1.0     0.355357     0.096301     0.496143  Biso 1.000000     O
    O   1.0     0.355351     0.596287     0.496142  Biso 1.000000     O
    O   1.0     0.855338     0.096300     0.496142  Biso 1.000000     O
    O   1.0     0.855334     0.596287     0.496143  Biso 1.000000     O
    O   1.0     0.030915     0.119794     0.645522  Biso 1.000000     O
    O   1.0     0.030917     0.619785     0.645520  Biso 1.000000     O
    O   1.0     0.530905     0.119798     0.645520  Biso 1.000000     O
    O   1.0     0.530893     0.619781     0.645522  Biso 1.000000     O
    O   1.0     0.399381     0.440593     0.959384  Biso 1.000000     O
    O   1.0     0.399375     0.940579     0.959385  Biso 1.000000     O
    O   1.0     0.899363     0.440593     0.959385  Biso 1.000000     O
    O   1.0     0.899359     0.940580     0.959384  Biso 1.000000     O
    O   1.0     0.144546     0.403697     0.996333  Biso 1.000000     O
    O   1.0     0.144540     0.903683     0.996334  Biso 1.000000     O
    O   1.0     0.644527     0.403696     0.996334  Biso 1.000000     O
    O   1.0     0.644523     0.903683     0.996332  Biso 1.000000     O
    O   1.0     0.468454     0.379811     0.145507  Biso 1.000000     O
    O   1.0     0.468456     0.879802     0.145509  Biso 1.000000     O
    O   1.0     0.968443     0.379815     0.145509  Biso 1.000000     O
    O   1.0     0.968431     0.879797     0.145507  Biso 1.000000     O
    F   1.0     0.283789     0.482771     0.346958  Biso 1.000000     F
    F   1.0     0.283785     0.982758     0.346959  Biso 1.000000     F
    F   1.0     0.783772     0.482772     0.346959  Biso 1.000000     F
    F   1.0     0.783767     0.982758     0.346958  Biso 1.000000     F
    F   1.0     0.216187     0.017198     0.846947  Biso 1.000000     F
    F   1.0     0.216182     0.517185     0.846946  Biso 1.000000     F
    F   1.0     0.716170     0.017198     0.846946  Biso 1.000000     F
    F   1.0     0.716164     0.517185     0.846947  Biso 1.000000     F
    F   1.0     0.216189     0.017212     0.653016  Biso 1.000000     F
    F   1.0     0.216183     0.517198     0.653015  Biso 1.000000     F
    F   1.0     0.716171     0.017211     0.653015  Biso 1.000000     F
    F   1.0     0.716166     0.517198     0.653016  Biso 1.000000     F
    F   1.0     0.283791     0.482785     0.153027  Biso 1.000000     F
    F   1.0     0.283786     0.982771     0.153028  Biso 1.000000     F
    F   1.0     0.783774     0.482784     0.153028  Biso 1.000000     F
    F   1.0     0.783769     0.982771     0.153027  Biso 1.000000     F
   Al   1.0     0.382295     0.430835     0.249984  Biso 1.000000    Al
   Al   1.0     0.382290     0.930822     0.249985  Biso 1.000000    Al
   Al   1.0     0.882278     0.430835     0.249985  Biso 1.000000    Al
   Al   1.0     0.882273     0.930821     0.249984  Biso 1.000000    Al
   Al   1.0     0.117683     0.069148     0.749991  Biso 1.000000    Al
   Al   1.0     0.117678     0.569134     0.749989  Biso 1.000000    Al
   Al   1.0     0.617665     0.069148     0.749989  Biso 1.000000    Al
   Al   1.0     0.617660     0.569134     0.749991  Biso 1.000000    Al
   Al   1.0     0.249992    -0.000002     0.499988  Biso 1.000000    Al
   Al   1.0     0.249986     0.499984     0.499986  Biso 1.000000    Al
   Al   1.0     0.749974    -0.000002     0.499987  Biso 1.000000    Al
   Al   1.0     0.749969     0.499985     0.499988  Biso 1.000000    Al
   Al   1.0     0.249991    -0.000000     0.000000  Biso 1.000000    Al
   Al   1.0     0.249987     0.499987    -0.000000  Biso 1.000000    Al
   Al   1.0     0.749975     0.000000    -0.000001  Biso 1.000000    Al
   Al   1.0     0.749969     0.499983     0.999975  Biso 1.000000    Al
    P   1.0     0.495116     0.383770     0.481738  Biso 1.000000     P
    P   1.0     0.495109     0.883755     0.481739  Biso 1.000000     P
    P   1.0     0.995097     0.383769     0.481739  Biso 1.000000     P
    P   1.0     0.995093     0.883756     0.481738  Biso 1.000000     P
    P   1.0     0.004987     0.116280     0.981703  Biso 1.000000     P
    P   1.0     0.004980     0.616266     0.981701  Biso 1.000000     P
    P   1.0     0.504968     0.116279     0.981701  Biso 1.000000     P
    P   1.0     0.504965     0.616267     0.981703  Biso 1.000000     P
    P   1.0     0.004862     0.116212     0.518237  Biso 1.000000     P
    P   1.0     0.004858     0.616200     0.518235  Biso 1.000000     P
    P   1.0     0.504846     0.116213     0.518235  Biso 1.000000     P
    P   1.0     0.504839     0.616199     0.518237  Biso 1.000000     P
    P   1.0     0.494992     0.383703     0.018272  Biso 1.000000     P
    P   1.0     0.494988     0.883690     0.018273  Biso 1.000000     P
    P   1.0     0.994976     0.383704     0.018273  Biso 1.000000     P
    P   1.0     0.994969     0.883689     0.018272  Biso 1.000000     P
