#======================================================================

# CRYSTAL DATA

#----------------------------------------------------------------------

data_VESTA_phase_1


_pd_phase_name                         MOF
_cell_length_a                         19.59700
_cell_length_b                         14.25500
_cell_length_c                         14.26100
_cell_angle_alpha                      102.69200
_cell_angle_beta                       103.34900
_cell_angle_gamma                      103.22000
_symmetry_space_group_name_H-M         "P 1"
_symmetry_Int_Tables_number            1

loop_
_symmetry_equiv_pos_as_xyz
   "x, y, z"

loop_
   _atom_site_label
   _atom_site_occupancy
   _atom_site_fract_x
   _atom_site_fract_y
   _atom_site_fract_z
   _atom_site_adp_type
   _atom_site_B_iso_or_equiv
   _atom_site_type_symbol
    H   1.0     0.036995     0.914317     0.490394  Biso 1.000000     H
    H   1.0     0.536995     0.914527     0.490404  Biso 1.000000     H
    H   1.0     0.165274     0.983523     0.596178  Biso 1.000000     H
    H   1.0     0.665269     0.983774     0.596184  Biso 1.000000     H
    H   1.0     0.228530     0.962918     0.321755  Biso 1.000000     H
    H   1.0     0.728544     0.962592     0.321732  Biso 1.000000     H
    H   1.0     0.096714     0.898238     0.228336  Biso 1.000000     H
    H   1.0     0.596727     0.897998     0.228319  Biso 1.000000     H
    H   1.0     0.033189     0.545769     0.271045  Biso 1.000000     H
    H   1.0     0.533199     0.545763     0.271045  Biso 1.000000     H
    H   1.0     0.012488     0.352387     0.257437  Biso 1.000000     H
    H   1.0     0.512496     0.352382     0.257441  Biso 1.000000     H
    H   1.0     0.232694     0.000511     0.076733  Biso 1.000000     H
    H   1.0     0.732694     0.000518     0.076748  Biso 1.000000     H
    H   1.0     0.260310     0.186757     0.064901  Biso 1.000000     H
    H   1.0     0.760311     0.186761     0.064908  Biso 1.000000     H
    H   1.0     0.213081     0.509611     0.086538  Biso 1.000000     H
    H   1.0     0.713089     0.509612     0.086485  Biso 1.000000     H
    H   1.0     0.084855     0.403851     0.017721  Biso 1.000000     H
    H   1.0     0.584865     0.403853     0.017654  Biso 1.000000     H
    H   1.0     0.021283     0.678111     0.035259  Biso 1.000000     H
    H   1.0     0.521285     0.678118     0.035341  Biso 1.000000     H
    H   1.0     0.153041     0.771498     0.100162  Biso 1.000000     H
    H   1.0     0.653043     0.771506     0.100217  Biso 1.000000     H
    H   1.0     0.216976     0.729236     0.453909  Biso 1.000000     H
    H   1.0     0.716979     0.729236     0.453909  Biso 1.000000     H
    H   1.0     0.237647     0.742909     0.647261  Biso 1.000000     H
    H   1.0     0.737652     0.742899     0.647258  Biso 1.000000     H
    H   1.0     0.017291     0.923151     0.999879  Biso 1.000000     H
    H   1.0     0.517295     0.923145     0.999883  Biso 1.000000     H
    H   1.0     0.489894     0.934947     0.813640  Biso 1.000000     H
    H   1.0     0.989902     0.934944     0.813633  Biso 1.000000     H
    H   1.0     0.462944     0.086847     0.509684  Biso 1.000000     H
    H   1.0     0.962942     0.087071     0.509697  Biso 1.000000     H
    H   1.0     0.334650     0.017826     0.403882  Biso 1.000000     H
    H   1.0     0.834643     0.018097     0.403891  Biso 1.000000     H
    H   1.0     0.271498     0.035349     0.678145  Biso 1.000000     H
    H   1.0     0.771512     0.034990     0.678116  Biso 1.000000     H
    H   1.0     0.403310     0.100423     0.771582  Biso 1.000000     H
    H   1.0     0.903323     0.100146     0.771559  Biso 1.000000     H
    H   1.0     0.466793     0.454273     0.728993  Biso 1.000000     H
    H   1.0     0.966802     0.454267     0.728994  Biso 1.000000     H
    H   1.0     0.487521     0.647647     0.742554  Biso 1.000000     H
    H   1.0     0.987529     0.647641     0.742555  Biso 1.000000     H
    H   1.0     0.267304     0.999510     0.923265  Biso 1.000000     H
    H   1.0     0.767297     0.999522     0.923280  Biso 1.000000     H
    H   1.0     0.239715     0.813263     0.935097  Biso 1.000000     H
    H   1.0     0.739714     0.813273     0.935105  Biso 1.000000     H
    H   1.0     0.286857     0.490456     0.914733  Biso 1.000000     H
    H   1.0     0.786862     0.490466     0.914833  Biso 1.000000     H
    H   1.0     0.415065     0.596197     0.983757  Biso 1.000000     H
    H   1.0     0.915069     0.596202     0.983874  Biso 1.000000     H
    H   1.0     0.478744     0.321764     0.962868  Biso 1.000000     H
    H   1.0     0.978751     0.321752     0.962711  Biso 1.000000     H
    H   1.0     0.346983     0.228395     0.898400  Biso 1.000000     H
    H   1.0     0.846990     0.228389     0.898273  Biso 1.000000     H
    H   1.0     0.283012     0.270786     0.546137  Biso 1.000000     H
    H   1.0     0.783015     0.270784     0.546134  Biso 1.000000     H
    H   1.0     0.262364     0.257068     0.352779  Biso 1.000000     H
    H   1.0     0.762367     0.257065     0.352775  Biso 1.000000     H
    H   1.0     0.482705     0.076842     0.000152  Biso 1.000000     H
    H   1.0     0.982702     0.076847     0.000163  Biso 1.000000     H
    H   1.0     0.010122     0.065043     0.186405  Biso 1.000000     H
    H   1.0     0.510133     0.065041     0.186396  Biso 1.000000     H
    C   1.0     0.081388     0.926912     0.456420  Biso 1.000000     C
    C   1.0     0.581389     0.927016     0.456420  Biso 1.000000     C
    C   1.0     0.154221     0.965065     0.515031  Biso 1.000000     C
    C   1.0     0.654222     0.965179     0.515032  Biso 1.000000     C
    C   1.0     0.210738     0.979791     0.469661  Biso 1.000000     C
    C   1.0     0.710743     0.979749     0.469654  Biso 1.000000     C
    C   1.0     0.188947     0.954747     0.363943  Biso 1.000000     C
    C   1.0     0.688958     0.954575     0.363929  Biso 1.000000     C
    C   1.0     0.114958     0.917584     0.310192  Biso 1.000000     C
    C   1.0     0.614968     0.917433     0.310180  Biso 1.000000     C
    C   1.0     0.402800     0.610706     0.212905  Biso 1.000000     C
    C   1.0     0.902802     0.610707     0.212897  Biso 1.000000     C
    C   1.0     0.414956     0.512678     0.215276  Biso 1.000000     C
    C   1.0     0.914958     0.512683     0.215283  Biso 1.000000     C
    C   1.0     0.479872     0.489300     0.245557  Biso 1.000000     C
    C   1.0     0.979874     0.489306     0.245563  Biso 1.000000     C
    C   1.0     0.468588     0.386346     0.238776  Biso 1.000000     C
    C   1.0     0.968591     0.386350     0.238775  Biso 1.000000     C
    C   1.0     0.394632     0.330758     0.202940  Biso 1.000000     C
    C   1.0     0.894635     0.330761     0.202939  Biso 1.000000     C
    C   1.0     0.361867     0.224623     0.187012  Biso 1.000000     C
    C   1.0     0.861871     0.224628     0.187016  Biso 1.000000     C
    C   1.0     0.336095     0.047058     0.194868  Biso 1.000000     C
    C   1.0     0.836099     0.047064     0.194877  Biso 1.000000     C
    C   1.0     0.280753     0.061818     0.124538  Biso 1.000000     C
    C   1.0     0.780756     0.061823     0.124547  Biso 1.000000     C
    C   1.0     0.295412     0.161629     0.118948  Biso 1.000000     C
    C   1.0     0.795414     0.161634     0.118956  Biso 1.000000     C
    C   1.0     0.344920     0.950919     0.210380  Biso 1.000000     C
    C   1.0     0.844924     0.950926     0.210389  Biso 1.000000     C
    C   1.0     0.168632     0.543566     0.073456  Biso 1.000000     C
    C   1.0     0.668639     0.543568     0.073423  Biso 1.000000     C
    C   1.0     0.095830     0.484964     0.035387  Biso 1.000000     C
    C   1.0     0.595836     0.484967     0.035367  Biso 1.000000     C
    C   1.0     0.039226     0.530296     0.019978  Biso 1.000000     C
    C   1.0     0.539231     0.530299     0.019974  Biso 1.000000     C
    C   1.0     0.060926     0.635953     0.044161  Biso 1.000000     C
    C   1.0     0.560929     0.635960     0.044216  Biso 1.000000     C
    C   1.0     0.134888     0.689687     0.081386  Biso 1.000000     C
    C   1.0     0.634891     0.689693     0.081418  Biso 1.000000     C
    C   1.0     0.347308     0.787092     0.389293  Biso 1.000000     C
    C   1.0     0.847311     0.787111     0.389296  Biso 1.000000     C
    C   1.0     0.335192     0.784891     0.487305  Biso 1.000000     C
    C   1.0     0.835194     0.784910     0.487308  Biso 1.000000     C
    C   1.0     0.270291     0.754718     0.510522  Biso 1.000000     C
    C   1.0     0.770294     0.754711     0.510519  Biso 1.000000     C
    C   1.0     0.281573     0.761515     0.613464  Biso 1.000000     C
    C   1.0     0.781578     0.761517     0.613464  Biso 1.000000     C
    C   1.0     0.355522     0.797282     0.669261  Biso 1.000000     C
    C   1.0     0.855526     0.797292     0.669265  Biso 1.000000     C
    C   1.0     0.388233     0.813161     0.775464  Biso 1.000000     C
    C   1.0     0.888238     0.813167     0.775468  Biso 1.000000     C
    C   1.0     0.413823     0.805350     0.953052  Biso 1.000000     C
    C   1.0     0.913826     0.805365     0.953054  Biso 1.000000     C
    C   1.0     0.469257     0.875440     0.938447  Biso 1.000000     C
    C   1.0     0.969266     0.875443     0.938444  Biso 1.000000     C
    C   1.0     0.454706     0.881033     0.838633  Biso 1.000000     C
    C   1.0     0.954712     0.881038     0.838631  Biso 1.000000     C
    C   1.0     0.404954     0.789939     0.049131  Biso 1.000000     C
    C   1.0     0.904963     0.789951     0.049134  Biso 1.000000     C
    C   1.0     0.418565     0.073694     0.543612  Biso 1.000000     C
    C   1.0     0.918565     0.073813     0.543616  Biso 1.000000     C
    C   1.0     0.345733     0.035555     0.485002  Biso 1.000000     C
    C   1.0     0.845734     0.035671     0.485004  Biso 1.000000     C
    C   1.0     0.289241     0.020032     0.530329  Biso 1.000000     C
    C   1.0     0.789246     0.020001     0.530321  Biso 1.000000     C
    C   1.0     0.311061     0.044316     0.636003  Biso 1.000000     C
    C   1.0     0.811072     0.044111     0.635984  Biso 1.000000     C
    C   1.0     0.385047     0.081607     0.689759  Biso 1.000000     C
    C   1.0     0.885056     0.081437     0.689744  Biso 1.000000     C
    C   1.0     0.097178     0.389296     0.787155  Biso 1.000000     C
    C   1.0     0.597182     0.389300     0.787149  Biso 1.000000     C
    C   1.0     0.085029     0.487334     0.784801  Biso 1.000000     C
    C   1.0     0.585032     0.487340     0.784802  Biso 1.000000     C
    C   1.0     0.020121     0.510721     0.754488  Biso 1.000000     C
    C   1.0     0.520124     0.510727     0.754488  Biso 1.000000     C
    C   1.0     0.031419     0.613673     0.761248  Biso 1.000000     C
    C   1.0     0.531423     0.613679     0.761247  Biso 1.000000     C
    C   1.0     0.105378     0.669250     0.797093  Biso 1.000000     C
    C   1.0     0.605382     0.669257     0.797090  Biso 1.000000     C
    C   1.0     0.138145     0.775380     0.812998  Biso 1.000000     C
    C   1.0     0.638147     0.775389     0.812999  Biso 1.000000     C
    C   1.0     0.163902     0.952939     0.805127  Biso 1.000000     C
    C   1.0     0.663902     0.952946     0.805129  Biso 1.000000     C
    C   1.0     0.219251     0.938193     0.875459  Biso 1.000000     C
    C   1.0     0.719252     0.938200     0.875461  Biso 1.000000     C
    C   1.0     0.204602     0.838383     0.881055  Biso 1.000000     C
    C   1.0     0.704601     0.838393     0.881062  Biso 1.000000     C
    C   1.0     0.155067     0.049079     0.789629  Biso 1.000000     C
    C   1.0     0.655063     0.049086     0.789637  Biso 1.000000     C
    C   1.0     0.331319     0.456452     0.927215  Biso 1.000000     C
    C   1.0     0.831324     0.456457     0.927259  Biso 1.000000     C
    C   1.0     0.404123     0.515054     0.965286  Biso 1.000000     C
    C   1.0     0.904127     0.515057     0.965347  Biso 1.000000     C
    C   1.0     0.460752     0.469677     0.979853  Biso 1.000000     C
    C   1.0     0.960758     0.469674     0.979827  Biso 1.000000     C
    C   1.0     0.439081     0.363970     0.954819  Biso 1.000000     C
    C   1.0     0.939088     0.363964     0.954743  Biso 1.000000     C
    C   1.0     0.365116     0.310243     0.917748  Biso 1.000000     C
    C   1.0     0.865122     0.310240     0.917666  Biso 1.000000     C
    C   1.0     0.152670     0.212943     0.610725  Biso 1.000000     C
    C   1.0     0.652672     0.212953     0.610723  Biso 1.000000     C
    C   1.0     0.164792     0.215167     0.512724  Biso 1.000000     C
    C   1.0     0.664795     0.215187     0.512724  Biso 1.000000     C
    C   1.0     0.229702     0.245312     0.489517  Biso 1.000000     C
    C   1.0     0.729705     0.245315     0.489514  Biso 1.000000     C
    C   1.0     0.218432     0.238489     0.386571  Biso 1.000000     C
    C   1.0     0.718435     0.238492     0.386568  Biso 1.000000     C
    C   1.0     0.144486     0.202727     0.330762  Biso 1.000000     C
    C   1.0     0.644489     0.202737     0.330760  Biso 1.000000     C
    C   1.0     0.111777     0.186828     0.224556  Biso 1.000000     C
    C   1.0     0.611780     0.186840     0.224553  Biso 1.000000     C
    C   1.0     0.086170     0.194622     0.046962  Biso 1.000000     C
    C   1.0     0.586178     0.194634     0.046961  Biso 1.000000     C
    C   1.0     0.030740     0.124542     0.061585  Biso 1.000000     C
    C   1.0     0.530750     0.124545     0.061578  Biso 1.000000     C
    C   1.0     0.045302     0.118955     0.161400  Biso 1.000000     C
    C   1.0     0.545310     0.118959     0.161393  Biso 1.000000     C
    C   1.0     0.095023     0.210050     0.950884  Biso 1.000000     C
    C   1.0     0.595037     0.210058     0.950883  Biso 1.000000     C
    N   1.0     0.061330     0.903049     0.354959  Biso 1.000000     N
    N   1.0     0.561334     0.903040     0.354954  Biso 1.000000     N
    N   1.0     0.188608     0.644986     0.096622  Biso 1.000000     N
    N   1.0     0.688613     0.644990     0.096623  Biso 1.000000     N
    N   1.0     0.438648     0.096887     0.645037  Biso 1.000000     N
    N   1.0     0.938653     0.096869     0.645033  Biso 1.000000     N
    N   1.0     0.311369     0.354994     0.903324  Biso 1.000000     N
    N   1.0     0.811373     0.354995     0.903316  Biso 1.000000     N
    O   1.0     0.458657     0.687217     0.238684  Biso 1.000000     O
    O   1.0     0.958659     0.687221     0.238693  Biso 1.000000     O
    O   1.0     0.414591     0.815011     0.390526  Biso 1.000000     O
    O   1.0     0.914593     0.815008     0.390523  Biso 1.000000     O
    O   1.0     0.406258     0.954724     0.269129  Biso 1.000000     O
    O   1.0     0.906271     0.954726     0.269110  Biso 1.000000     O
    O   1.0     0.291020     0.871916     0.162574  Biso 1.000000     O
    O   1.0     0.791015     0.871926     0.162608  Biso 1.000000     O
    O   1.0     0.291388     0.761287     0.312724  Biso 1.000000     O
    O   1.0     0.791389     0.761280     0.312725  Biso 1.000000     O
    O   1.0     0.335486     0.609538     0.184831  Biso 1.000000     O
    O   1.0     0.835488     0.609541     0.184831  Biso 1.000000     O
    O   1.0     0.343633     0.731314     0.045221  Biso 1.000000     O
    O   1.0     0.843639     0.731336     0.045228  Biso 1.000000     O
    O   1.0     0.458846     0.837690     0.128228  Biso 1.000000     O
    O   1.0     0.958860     0.837689     0.128227  Biso 1.000000     O
    O   1.0     0.041315     0.312780     0.761322  Biso 1.000000     O
    O   1.0     0.541320     0.312784     0.761330  Biso 1.000000     O
    O   1.0     0.085386     0.185009     0.609491  Biso 1.000000     O
    O   1.0     0.585386     0.185018     0.609484  Biso 1.000000     O
    O   1.0     0.093722     0.045272     0.730886  Biso 1.000000     O
    O   1.0     0.593740     0.045270     0.730832  Biso 1.000000     O
    O   1.0     0.208963     0.128081     0.837430  Biso 1.000000     O
    O   1.0     0.708950     0.128093     0.837463  Biso 1.000000     O
    O   1.0     0.208587     0.238709     0.687288  Biso 1.000000     O
    O   1.0     0.708588     0.238705     0.687286  Biso 1.000000     O
    O   1.0     0.164489     0.390456     0.815203  Biso 1.000000     O
    O   1.0     0.664493     0.390462     0.815197  Biso 1.000000     O
    O   1.0     0.156351     0.268640     0.954782  Biso 1.000000     O
    O   1.0     0.656352     0.268685     0.954789  Biso 1.000000     O
    O   1.0     0.041117     0.162322     0.871791  Biso 1.000000     O
    O   1.0     0.541142     0.162300     0.871782  Biso 1.000000     O
    S   1.0     0.339627     0.407488     0.178599  Biso 1.000000     S
    S   1.0     0.839630     0.407493     0.178608  Biso 1.000000     S
    S   1.0     0.405353     0.158770     0.257931  Biso 1.000000     S
    S   1.0     0.905361     0.158774     0.257930  Biso 1.000000     S
    S   1.0     0.410509     0.821550     0.592688  Biso 1.000000     S
    S   1.0     0.910510     0.821562     0.592690  Biso 1.000000     S
    S   1.0     0.344622     0.742414     0.841151  Biso 1.000000     S
    S   1.0     0.844625     0.742423     0.841155  Biso 1.000000     S
    S   1.0     0.160369     0.592512     0.821472  Biso 1.000000     S
    S   1.0     0.660372     0.592518     0.821470  Biso 1.000000     S
    S   1.0     0.094652     0.841221     0.742069  Biso 1.000000     S
    S   1.0     0.594660     0.841224     0.742055  Biso 1.000000     S
    S   1.0     0.089487     0.178500     0.407329  Biso 1.000000     S
    S   1.0     0.589489     0.178521     0.407329  Biso 1.000000     S
    S   1.0     0.155386     0.257552     0.158851  Biso 1.000000     S
    S   1.0     0.655387     0.257574     0.158854  Biso 1.000000     S
   Zn   1.0     0.452477     0.834943     0.271334  Biso 1.000000    Zn
   Zn   1.0     0.952485     0.834946     0.271334  Biso 1.000000    Zn
   Zn   1.0     0.297437     0.728719     0.164985  Biso 1.000000    Zn
   Zn   1.0     0.797440     0.728723     0.164987  Biso 1.000000    Zn
   Zn   1.0     0.047487     0.165047     0.728679  Biso 1.000000    Zn
   Zn   1.0     0.547498     0.165049     0.728675  Biso 1.000000    Zn
   Zn   1.0     0.202533     0.271273     0.835021  Biso 1.000000    Zn
   Zn   1.0     0.702534     0.271279     0.835020  Biso 1.000000    Zn
