#======================================================================

# CRYSTAL DATA

#----------------------------------------------------------------------

data_VESTA_phase_1


_pd_phase_name                         MOF
_cell_length_a                         23.83000
_cell_length_b                         23.83100
_cell_length_c                         15.27000
_cell_angle_alpha                      109.83000
_cell_angle_beta                       109.89600
_cell_angle_gamma                      97.19300
_symmetry_space_group_name_H-M         "P 1"
_symmetry_Int_Tables_number            1

loop_
_symmetry_equiv_pos_as_xyz
   "x, y, z"

loop_
   _atom_site_label
   _atom_site_occupancy
   _atom_site_fract_x
   _atom_site_fract_y
   _atom_site_fract_z
   _atom_site_adp_type
   _atom_site_B_iso_or_equiv
   _atom_site_type_symbol
    H   1.0     0.401422     0.131375     0.815949  Biso 1.000000     H
    H   1.0     0.401469     0.631444     0.816013  Biso 1.000000     H
    H   1.0     0.901234     0.131372     0.815808  Biso 1.000000     H
    H   1.0     0.901223     0.631337     0.815843  Biso 1.000000     H
    H   1.0     0.058864     0.012771     0.016370  Biso 1.000000     H
    H   1.0     0.058796     0.512795     0.016472  Biso 1.000000     H
    H   1.0     0.558824     0.012806     0.016476  Biso 1.000000     H
    H   1.0     0.558830     0.512797     0.016394  Biso 1.000000     H
    H   1.0     0.094238     0.207672     0.080401  Biso 1.000000     H
    H   1.0     0.094182     0.707695     0.080472  Biso 1.000000     H
    H   1.0     0.594374     0.207705     0.080501  Biso 1.000000     H
    H   1.0     0.594491     0.707733     0.080627  Biso 1.000000     H
    H   1.0     0.146534     0.140171     0.318924  Biso 1.000000     H
    H   1.0     0.146524     0.640214     0.319013  Biso 1.000000     H
    H   1.0     0.646429     0.140199     0.319044  Biso 1.000000     H
    H   1.0     0.646406     0.640102     0.319023  Biso 1.000000     H
    H   1.0     0.449562     0.265212     0.078184  Biso 1.000000     H
    H   1.0     0.449527     0.765085     0.078186  Biso 1.000000     H
    H   1.0     0.949528     0.265234     0.078134  Biso 1.000000     H
    H   1.0     0.949461     0.765069     0.078061  Biso 1.000000     H
    H   1.0     0.446940     0.100678     0.137185  Biso 1.000000     H
    H   1.0     0.446951     0.600589     0.137306  Biso 1.000000     H
    H   1.0     0.946723     0.100653     0.137021  Biso 1.000000     H
    H   1.0     0.946660     0.600501     0.136991  Biso 1.000000     H
    H   1.0     0.021420     0.285821     0.379497  Biso 1.000000     H
    H   1.0     0.021396     0.785681     0.379437  Biso 1.000000     H
    H   1.0     0.521262     0.285868     0.379594  Biso 1.000000     H
    H   1.0     0.521368     0.785813     0.379626  Biso 1.000000     H
    H   1.0     0.368848     0.098919     0.684276  Biso 1.000000     H
    H   1.0     0.368995     0.599149     0.684357  Biso 1.000000     H
    H   1.0     0.868744     0.098908     0.684205  Biso 1.000000     H
    H   1.0     0.868761     0.598970     0.684215  Biso 1.000000     H
    H   1.0     0.487131     0.441262     0.483636  Biso 1.000000     H
    H   1.0     0.487154     0.941220     0.483640  Biso 1.000000     H
    H   1.0     0.987142     0.441240     0.483464  Biso 1.000000     H
    H   1.0     0.987165     0.941154     0.483572  Biso 1.000000     H
    H   1.0     0.292204     0.405852     0.419801  Biso 1.000000     H
    H   1.0     0.292214     0.905798     0.419694  Biso 1.000000     H
    H   1.0     0.792225     0.405696     0.419682  Biso 1.000000     H
    H   1.0     0.792244     0.905822     0.419775  Biso 1.000000     H
    H   1.0     0.359457     0.353421     0.181169  Biso 1.000000     H
    H   1.0     0.359524     0.853384     0.181137  Biso 1.000000     H
    H   1.0     0.859445     0.353360     0.181002  Biso 1.000000     H
    H   1.0     0.859463     0.853265     0.181120  Biso 1.000000     H
    H   1.0     0.234861     0.050387     0.421909  Biso 1.000000     H
    H   1.0     0.234935     0.550489     0.421922  Biso 1.000000     H
    H   1.0     0.734786     0.050353     0.421810  Biso 1.000000     H
    H   1.0     0.734789     0.550252     0.421778  Biso 1.000000     H
    H   1.0     0.399460     0.053398     0.363145  Biso 1.000000     H
    H   1.0     0.399472     0.553280     0.362998  Biso 1.000000     H
    H   1.0     0.899376     0.053380     0.363023  Biso 1.000000     H
    H   1.0     0.899352     0.553202     0.362919  Biso 1.000000     H
    H   1.0     0.214132     0.478421     0.120549  Biso 1.000000     H
    H   1.0     0.214157     0.978370     0.120585  Biso 1.000000     H
    H   1.0     0.714027     0.478290     0.120424  Biso 1.000000     H
    H   1.0     0.714066     0.978303     0.120479  Biso 1.000000     H
    H   1.0     0.098741     0.368644     0.184178  Biso 1.000000     H
    H   1.0     0.098725     0.868606     0.184214  Biso 1.000000     H
    H   1.0     0.598480     0.368530     0.184003  Biso 1.000000     H
    H   1.0     0.598530     0.868602     0.184070  Biso 1.000000     H
    H   1.0     0.441127     0.487182     0.983631  Biso 1.000000     H
    H   1.0     0.441136     0.987173     0.983547  Biso 1.000000     H
    H   1.0     0.941167     0.487187     0.983544  Biso 1.000000     H
    H   1.0     0.941094     0.987207     0.983648  Biso 1.000000     H
    H   1.0     0.405464     0.292245     0.919397  Biso 1.000000     H
    H   1.0     0.405583     0.792273     0.919519  Biso 1.000000     H
    H   1.0     0.905781     0.292288     0.919550  Biso 1.000000     H
    H   1.0     0.905723     0.792305     0.919616  Biso 1.000000     H
    H   1.0     0.353554     0.359877     0.681002  Biso 1.000000     H
    H   1.0     0.353532     0.859781     0.680978  Biso 1.000000     H
    H   1.0     0.853436     0.359766     0.681005  Biso 1.000000     H
    H   1.0     0.853425     0.859807     0.681093  Biso 1.000000     H
    H   1.0     0.050503     0.234912     0.921963  Biso 1.000000     H
    H   1.0     0.050434     0.734745     0.921883  Biso 1.000000     H
    H   1.0     0.550431     0.234895     0.921836  Biso 1.000000     H
    H   1.0     0.550389     0.734764     0.921835  Biso 1.000000     H
    H   1.0     0.053303     0.399478     0.863026  Biso 1.000000     H
    H   1.0     0.053238     0.899328     0.863004  Biso 1.000000     H
    H   1.0     0.553008     0.399389     0.862713  Biso 1.000000     H
    H   1.0     0.553019     0.899300     0.862839  Biso 1.000000     H
    H   1.0     0.478590     0.214165     0.620396  Biso 1.000000     H
    H   1.0     0.478698     0.714111     0.620426  Biso 1.000000     H
    H   1.0     0.978562     0.214297     0.620585  Biso 1.000000     H
    H   1.0     0.978540     0.714163     0.620522  Biso 1.000000     H
    H   1.0     0.131199     0.401005     0.315803  Biso 1.000000     H
    H   1.0     0.131214     0.901072     0.315817  Biso 1.000000     H
    H   1.0     0.630959     0.400825     0.315660  Biso 1.000000     H
    H   1.0     0.631109     0.901061     0.315745  Biso 1.000000     H
    H   1.0     0.012791     0.058825     0.516446  Biso 1.000000     H
    H   1.0     0.012818     0.558742     0.516555  Biso 1.000000     H
    H   1.0     0.512806     0.058761     0.516379  Biso 1.000000     H
    H   1.0     0.512828     0.558713     0.516391  Biso 1.000000     H
    H   1.0     0.207712     0.094158     0.580242  Biso 1.000000     H
    H   1.0     0.207735     0.594281     0.580337  Biso 1.000000     H
    H   1.0     0.707746     0.094184     0.580328  Biso 1.000000     H
    H   1.0     0.707754     0.594122     0.580221  Biso 1.000000     H
    H   1.0     0.140493     0.146714     0.818898  Biso 1.000000     H
    H   1.0     0.140515     0.646618     0.819017  Biso 1.000000     H
    H   1.0     0.640435     0.146595     0.818883  Biso 1.000000     H
    H   1.0     0.640503     0.646561     0.818857  Biso 1.000000     H
    H   1.0     0.265168     0.449720     0.578239  Biso 1.000000     H
    H   1.0     0.265170     0.949625     0.578206  Biso 1.000000     H
    H   1.0     0.765026     0.449492     0.578099  Biso 1.000000     H
    H   1.0     0.765098     0.949596     0.578116  Biso 1.000000     H
    H   1.0     0.100606     0.446777     0.637102  Biso 1.000000     H
    H   1.0     0.100583     0.946602     0.637002  Biso 1.000000     H
    H   1.0     0.600487     0.446694     0.637020  Biso 1.000000     H
    H   1.0     0.600499     0.946586     0.636878  Biso 1.000000     H
    H   1.0     0.285895     0.021675     0.879539  Biso 1.000000     H
    H   1.0     0.285933     0.521685     0.879594  Biso 1.000000     H
    H   1.0     0.785801     0.021611     0.879439  Biso 1.000000     H
    H   1.0     0.785827     0.521558     0.879471  Biso 1.000000     H
    C   1.0     0.077477     0.061353     0.069522  Biso 1.000000     C
    C   1.0     0.077406     0.561378     0.069615  Biso 1.000000     C
    C   1.0     0.577457     0.061387     0.069630  Biso 1.000000     C
    C   1.0     0.577471     0.561370     0.069587  Biso 1.000000     C
    C   1.0     0.072831     0.108249     0.034145  Biso 1.000000     C
    C   1.0     0.072762     0.608277     0.034243  Biso 1.000000     C
    C   1.0     0.572901     0.108284     0.034248  Biso 1.000000     C
    C   1.0     0.572989     0.608306     0.034279  Biso 1.000000     C
    C   1.0     0.097138     0.170012     0.105496  Biso 1.000000     C
    C   1.0     0.097083     0.670041     0.105583  Biso 1.000000     C
    C   1.0     0.597218     0.170044     0.105604  Biso 1.000000     C
    C   1.0     0.597300     0.670051     0.105684  Biso 1.000000     C
    C   1.0     0.123323     0.181723     0.208898  Biso 1.000000     C
    C   1.0     0.123291     0.681756     0.208982  Biso 1.000000     C
    C   1.0     0.623330     0.181755     0.209010  Biso 1.000000     C
    C   1.0     0.623361     0.681715     0.209071  Biso 1.000000     C
    C   1.0     0.126666     0.132625     0.238814  Biso 1.000000     C
    C   1.0     0.126627     0.632658     0.238900  Biso 1.000000     C
    C   1.0     0.626604     0.132657     0.238933  Biso 1.000000     C
    C   1.0     0.626594     0.632586     0.238924  Biso 1.000000     C
    C   1.0     0.038325     0.090942     0.921125  Biso 1.000000     C
    C   1.0     0.038260     0.590997     0.921240  Biso 1.000000     C
    C   1.0     0.538500     0.090980     0.921205  Biso 1.000000     C
    C   1.0     0.538668     0.591088     0.921259  Biso 1.000000     C
    C   1.0     0.458982     0.242541     0.130541  Biso 1.000000     C
    C   1.0     0.458967     0.742425     0.130561  Biso 1.000000     C
    C   1.0     0.958926     0.242539     0.130456  Biso 1.000000     C
    C   1.0     0.958867     0.742377     0.130390  Biso 1.000000     C
    C   1.0     0.444149     0.177924     0.093556  Biso 1.000000     C
    C   1.0     0.444115     0.677807     0.093618  Biso 1.000000     C
    C   1.0     0.943978     0.177917     0.093438  Biso 1.000000     C
    C   1.0     0.943905     0.677753     0.093385  Biso 1.000000     C
    C   1.0     0.457550     0.150894     0.163850  Biso 1.000000     C
    C   1.0     0.457564     0.650803     0.163944  Biso 1.000000     C
    C   1.0     0.957412     0.150872     0.163711  Biso 1.000000     C
    C   1.0     0.957349     0.650720     0.163673  Biso 1.000000     C
    C   1.0     0.485189     0.189964     0.267408  Biso 1.000000     C
    C   1.0     0.485243     0.689891     0.267492  Biso 1.000000     C
    C   1.0     0.985165     0.189926     0.267274  Biso 1.000000     C
    C   1.0     0.985115     0.689778     0.267233  Biso 1.000000     C
    C   1.0    -0.001111     0.254121     0.299033  Biso 1.000000     C
    C   1.0    -0.001152     0.753972     0.298979  Biso 1.000000     C
    C   1.0     0.498802     0.254155     0.299135  Biso 1.000000     C
    C   1.0     0.498869     0.754079     0.299180  Biso 1.000000     C
    C   1.0     0.416686     0.139317     0.979500  Biso 1.000000     C
    C   1.0     0.416628     0.639165     0.979573  Biso 1.000000     C
    C   1.0     0.916359     0.139307     0.979365  Biso 1.000000     C
    C   1.0     0.916281     0.639118     0.979318  Biso 1.000000     C
    C   1.0     0.438505     0.422626     0.430540  Biso 1.000000     C
    C   1.0     0.438534     0.922584     0.430516  Biso 1.000000     C
    C   1.0     0.938517     0.422570     0.430367  Biso 1.000000     C
    C   1.0     0.938538     0.922514     0.430480  Biso 1.000000     C
    C   1.0     0.391649     0.427282     0.465959  Biso 1.000000     C
    C   1.0     0.391661     0.927248     0.465895  Biso 1.000000     C
    C   1.0     0.891671     0.427199     0.465815  Biso 1.000000     C
    C   1.0     0.891693     0.927230     0.465921  Biso 1.000000     C
    C   1.0     0.329829     0.402935     0.394659  Biso 1.000000     C
    C   1.0     0.329849     0.902888     0.394571  Biso 1.000000     C
    C   1.0     0.829848     0.402819     0.394528  Biso 1.000000     C
    C   1.0     0.829870     0.902882     0.394634  Biso 1.000000     C
    C   1.0     0.318018     0.376690     0.291254  Biso 1.000000     C
    C   1.0     0.318058     0.876645     0.291177  Biso 1.000000     C
    C   1.0     0.818031     0.376590     0.291117  Biso 1.000000     C
    C   1.0     0.818051     0.876612     0.291225  Biso 1.000000     C
    C   1.0     0.367075     0.373333     0.261285  Biso 1.000000     C
    C   1.0     0.367133     0.873294     0.261249  Biso 1.000000     C
    C   1.0     0.867083     0.373266     0.261127  Biso 1.000000     C
    C   1.0     0.867103     0.873204     0.261244  Biso 1.000000     C
    C   1.0     0.409047     0.461822     0.578970  Biso 1.000000     C
    C   1.0     0.409005     0.961782     0.578885  Biso 1.000000     C
    C   1.0     0.909094     0.461743     0.578848  Biso 1.000000     C
    C   1.0     0.909112     0.961806     0.578943  Biso 1.000000     C
    C   1.0     0.257545     0.041000     0.369613  Biso 1.000000     C
    C   1.0     0.257596     0.541050     0.369594  Biso 1.000000     C
    C   1.0     0.757461     0.040959     0.369504  Biso 1.000000     C
    C   1.0     0.757452     0.540851     0.369455  Biso 1.000000     C
    C   1.0     0.322198     0.056053     0.406664  Biso 1.000000     C
    C   1.0     0.322244     0.556042     0.406592  Biso 1.000000     C
    C   1.0     0.822112     0.056030     0.406550  Biso 1.000000     C
    C   1.0     0.822101     0.555882     0.406477  Biso 1.000000     C
    C   1.0     0.349218     0.042631     0.336419  Biso 1.000000     C
    C   1.0     0.349234     0.542574     0.336306  Biso 1.000000     C
    C   1.0     0.849133     0.042600     0.336307  Biso 1.000000     C
    C   1.0     0.849112     0.542463     0.336218  Biso 1.000000     C
    C   1.0     0.310121     0.014793     0.232849  Biso 1.000000     C
    C   1.0     0.310111     0.514780     0.232749  Biso 1.000000     C
    C   1.0     0.810028     0.014740     0.232739  Biso 1.000000     C
    C   1.0     0.809996     0.514659     0.232654  Biso 1.000000     C
    C   1.0     0.245893     0.501014     0.201001  Biso 1.000000     C
    C   1.0     0.245896     0.000000     0.201049  Biso 1.000000     C
    C   1.0     0.745775     0.500870     0.200884  Biso 1.000000     C
    C   1.0     0.745804     0.000000     0.200943  Biso 1.000000     C
    C   1.0     0.360899     0.083762     0.520758  Biso 1.000000     C
    C   1.0     0.360980     0.583704     0.520673  Biso 1.000000     C
    C   1.0     0.860783     0.083751     0.520650  Biso 1.000000     C
    C   1.0     0.860784     0.583559     0.520570  Biso 1.000000     C
    C   1.0     0.422487     0.438609     0.930437  Biso 1.000000     C
    C   1.0     0.422503     0.938592     0.930391  Biso 1.000000     C
    C   1.0     0.922558     0.438603     0.930403  Biso 1.000000     C
    C   1.0     0.922480     0.938625     0.930496  Biso 1.000000     C
    C   1.0     0.426966     0.391673     0.965745  Biso 1.000000     C
    C   1.0     0.427055     0.891694     0.965774  Biso 1.000000     C
    C   1.0     0.927201     0.391706     0.965776  Biso 1.000000     C
    C   1.0     0.927131     0.891728     0.965871  Biso 1.000000     C
    C   1.0     0.402658     0.329927     0.894341  Biso 1.000000     C
    C   1.0     0.402740     0.829935     0.894418  Biso 1.000000     C
    C   1.0     0.902879     0.329942     0.894437  Biso 1.000000     C
    C   1.0     0.902821     0.829966     0.894521  Biso 1.000000     C
    C   1.0     0.376597     0.318263     0.790954  Biso 1.000000     C
    C   1.0     0.376629     0.818224     0.791011  Biso 1.000000     C
    C   1.0     0.876670     0.318225     0.791038  Biso 1.000000     C
    C   1.0     0.876636     0.818255     0.791119  Biso 1.000000     C
    C   1.0     0.373363     0.367392     0.761101  Biso 1.000000     C
    C   1.0     0.373356     0.867322     0.761088  Biso 1.000000     C
    C   1.0     0.873334     0.367323     0.761118  Biso 1.000000     C
    C   1.0     0.873293     0.867353     0.761204  Biso 1.000000     C
    C   1.0     0.461290     0.408892     0.078766  Biso 1.000000     C
    C   1.0     0.461456     0.908996     0.078817  Biso 1.000000     C
    C   1.0     0.961706     0.408987     0.078778  Biso 1.000000     C
    C   1.0     0.961634     0.909035     0.078893  Biso 1.000000     C
    C   1.0     0.041096     0.257603     0.869633  Biso 1.000000     C
    C   1.0     0.041037     0.757441     0.869562  Biso 1.000000     C
    C   1.0     0.540994     0.257554     0.869461  Biso 1.000000     C
    C   1.0     0.540971     0.757436     0.869479  Biso 1.000000     C
    C   1.0     0.056059     0.322228     0.906635  Biso 1.000000     C
    C   1.0     0.055981     0.822062     0.906583  Biso 1.000000     C
    C   1.0     0.555838     0.322172     0.906402  Biso 1.000000     C
    C   1.0     0.555807     0.822053     0.906466  Biso 1.000000     C
    C   1.0     0.042613     0.349260     0.836347  Biso 1.000000     C
    C   1.0     0.042551     0.849109     0.836312  Biso 1.000000     C
    C   1.0     0.542394     0.349175     0.836075  Biso 1.000000     C
    C   1.0     0.542406     0.849084     0.836172  Biso 1.000000     C
    C   1.0     0.014846     0.310201     0.732787  Biso 1.000000     C
    C   1.0     0.014797     0.810056     0.732748  Biso 1.000000     C
    C   1.0     0.514715     0.310087     0.732528  Biso 1.000000     C
    C   1.0     0.514769     0.810015     0.732615  Biso 1.000000     C
    C   1.0     0.501089     0.245899     0.700841  Biso 1.000000     C
    C   1.0     0.501156     0.745823     0.700886  Biso 1.000000     C
    C   1.0     0.000000     0.246006     0.701042  Biso 1.000000     C
    C   1.0     0.000000     0.745861     0.700987  Biso 1.000000     C
    C   1.0     0.083685     0.360864     0.020702  Biso 1.000000     C
    C   1.0     0.083603     0.860671     0.020657  Biso 1.000000     C
    C   1.0     0.583328     0.360813     0.020447  Biso 1.000000     C
    C   1.0     0.583268     0.860659     0.020522  Biso 1.000000     C
    C   1.0     0.061418     0.077467     0.569538  Biso 1.000000     C
    C   1.0     0.061443     0.577408     0.569652  Biso 1.000000     C
    C   1.0     0.561426     0.077398     0.569504  Biso 1.000000     C
    C   1.0     0.561454     0.577351     0.569486  Biso 1.000000     C
    C   1.0     0.108263     0.072749     0.534098  Biso 1.000000     C
    C   1.0     0.108288     0.572781     0.534203  Biso 1.000000     C
    C   1.0     0.608300     0.072732     0.534127  Biso 1.000000     C
    C   1.0     0.608309     0.572690     0.534067  Biso 1.000000     C
    C   1.0     0.170087     0.097097     0.605385  Biso 1.000000     C
    C   1.0     0.170111     0.597161     0.605490  Biso 1.000000     C
    C   1.0     0.670111     0.097095     0.605451  Biso 1.000000     C
    C   1.0     0.670129     0.597042     0.605365  Biso 1.000000     C
    C   1.0     0.181905     0.123367     0.708793  Biso 1.000000     C
    C   1.0     0.181929     0.623386     0.708902  Biso 1.000000     C
    C   1.0     0.681901     0.123336     0.708845  Biso 1.000000     C
    C   1.0     0.681941     0.623289     0.708771  Biso 1.000000     C
    C   1.0     0.132853     0.126775     0.738774  Biso 1.000000     C
    C   1.0     0.132877     0.626713     0.738892  Biso 1.000000     C
    C   1.0     0.632826     0.126684     0.738772  Biso 1.000000     C
    C   1.0     0.632884     0.626646     0.738740  Biso 1.000000     C
    C   1.0     0.090842     0.038174     0.421076  Biso 1.000000     C
    C   1.0     0.090865     0.538235     0.421170  Biso 1.000000     C
    C   1.0     0.590958     0.038201     0.421136  Biso 1.000000     C
    C   1.0     0.590910     0.538151     0.421055  Biso 1.000000     C
    C   1.0     0.242505     0.459123     0.630562  Biso 1.000000     C
    C   1.0     0.242496     0.959020     0.630514  Biso 1.000000     C
    C   1.0     0.742365     0.458928     0.630426  Biso 1.000000     C
    C   1.0     0.742414     0.958986     0.630411  Biso 1.000000     C
    C   1.0     0.177856     0.444094     0.593542  Biso 1.000000     C
    C   1.0     0.177845     0.943951     0.593471  Biso 1.000000     C
    C   1.0     0.677717     0.443940     0.593428  Biso 1.000000     C
    C   1.0     0.677761     0.943927     0.593359  Biso 1.000000     C
    C   1.0     0.150847     0.457516     0.663803  Biso 1.000000     C
    C   1.0     0.150825     0.957381     0.663716  Biso 1.000000     C
    C   1.0     0.650726     0.457401     0.663713  Biso 1.000000     C
    C   1.0     0.650741     0.957351     0.663605  Biso 1.000000     C
    C   1.0     0.189963     0.485318     0.767366  Biso 1.000000     C
    C   1.0     0.189932     0.985240     0.767283  Biso 1.000000     C
    C   1.0     0.689848     0.485197     0.767270  Biso 1.000000     C
    C   1.0     0.689838     0.985189     0.767174  Biso 1.000000     C
    C   1.0     0.254156    -0.000943     0.799076  Biso 1.000000     C
    C   1.0     0.254185     0.499106     0.799134  Biso 1.000000     C
    C   1.0     0.754062    -0.001000     0.798976  Biso 1.000000     C
    C   1.0     0.754067     0.498965     0.799018  Biso 1.000000     C
    C   1.0     0.139171     0.416415     0.479449  Biso 1.000000     C
    C   1.0     0.139171     0.916229     0.479372  Biso 1.000000     C
    C   1.0     0.638981     0.416272     0.479347  Biso 1.000000     C
    C   1.0     0.639062     0.916223     0.479266  Biso 1.000000     C
    N   1.0     0.104551     0.073320     0.169295  Biso 1.000000     N
    N   1.0     0.104502     0.573352     0.169390  Biso 1.000000     N
    N   1.0     0.604459     0.073352     0.169412  Biso 1.000000     N
    N   1.0     0.604439     0.573290     0.169358  Biso 1.000000     N
    N   1.0     0.485463     0.279782     0.230875  Biso 1.000000     N
    N   1.0     0.485492     0.779683     0.230887  Biso 1.000000     N
    N   1.0     0.985525     0.279766     0.230799  Biso 1.000000     N
    N   1.0     0.985471     0.779609     0.230731  Biso 1.000000     N
    N   1.0     0.426434     0.395509     0.330762  Biso 1.000000     N
    N   1.0     0.426489     0.895462     0.330747  Biso 1.000000     N
    N   1.0     0.926449     0.395468     0.330584  Biso 1.000000     N
    N   1.0     0.926469     0.895360     0.330704  Biso 1.000000     N
    N   1.0     0.220275     0.014311     0.269261  Biso 1.000000     N
    N   1.0     0.220300     0.514375     0.269251  Biso 1.000000     N
    N   1.0     0.720185     0.014256     0.269155  Biso 1.000000     N
    N   1.0     0.720164     0.514181     0.269110  Biso 1.000000     N
    N   1.0     0.395520     0.426688     0.830666  Biso 1.000000     N
    N   1.0     0.395500     0.926627     0.830609  Biso 1.000000     N
    N   1.0     0.895459     0.426629     0.830627  Biso 1.000000     N
    N   1.0     0.895407     0.926658     0.830723  Biso 1.000000     N
    N   1.0     0.014489     0.220370     0.769291  Biso 1.000000     N
    N   1.0     0.014438     0.720215     0.769219  Biso 1.000000     N
    N   1.0     0.514465     0.220296     0.769134  Biso 1.000000     N
    N   1.0     0.514491     0.720196     0.769145  Biso 1.000000     N
    N   1.0     0.073487     0.104617     0.669315  Biso 1.000000     N
    N   1.0     0.073511     0.604514     0.669434  Biso 1.000000     N
    N   1.0     0.573470     0.104518     0.669273  Biso 1.000000     N
    N   1.0     0.573524     0.604469     0.669264  Biso 1.000000     N
    N   1.0     0.279794     0.485795     0.730907  Biso 1.000000     N
    N   1.0     0.279773     0.985721     0.730862  Biso 1.000000     N
    N   1.0     0.779660     0.485606     0.730770  Biso 1.000000     N
    N   1.0     0.779684     0.985669     0.730764  Biso 1.000000     N
    O   1.0     0.501071     0.037531     0.869369  Biso 1.000000     O
    O   1.0     0.501032     0.537753     0.869402  Biso 1.000000     O
    O   1.0     0.000000     0.037507     0.869380  Biso 1.000000     O
    O   1.0     0.000000     0.537558     0.869435  Biso 1.000000     O
    O   1.0     0.049510     0.131953     0.888563  Biso 1.000000     O
    O   1.0     0.049419     0.632047     0.888737  Biso 1.000000     O
    O   1.0     0.549738     0.132015     0.888706  Biso 1.000000     O
    O   1.0     0.550168     0.632053     0.888769  Biso 1.000000     O
    O   1.0     0.409259     0.169597     0.923895  Biso 1.000000     O
    O   1.0     0.409144     0.669412     0.923925  Biso 1.000000     O
    O   1.0     0.908884     0.169578     0.923744  Biso 1.000000     O
    O   1.0     0.908800     0.669370     0.923673  Biso 1.000000     O
    O   1.0     0.404655     0.080702     0.949753  Biso 1.000000     O
    O   1.0     0.404633     0.580553     0.949854  Biso 1.000000     O
    O   1.0     0.904245     0.080688     0.949605  Biso 1.000000     O
    O   1.0     0.904161     0.580500     0.949563  Biso 1.000000     O
    O   1.0     0.462468    -0.000760     0.630602  Biso 1.000000     O
    O   1.0     0.462594     0.499084     0.630722  Biso 1.000000     O
    O   1.0     0.962551    -0.000675     0.630509  Biso 1.000000     O
    O   1.0     0.962627     0.499051     0.630546  Biso 1.000000     O
    O   1.0     0.367972     0.450870     0.611519  Biso 1.000000     O
    O   1.0     0.367971     0.950641     0.611408  Biso 1.000000     O
    O   1.0     0.868050     0.450738     0.611426  Biso 1.000000     O
    O   1.0     0.868174     0.950629     0.611619  Biso 1.000000     O
    O   1.0     0.330675     0.091272     0.576397  Biso 1.000000     O
    O   1.0     0.330813     0.591576     0.576410  Biso 1.000000     O
    O   1.0     0.830523     0.091225     0.576236  Biso 1.000000     O
    O   1.0     0.830561     0.591316     0.576215  Biso 1.000000     O
    O   1.0     0.419538     0.095909     0.550513  Biso 1.000000     O
    O   1.0     0.419596     0.595442     0.550310  Biso 1.000000     O
    O   1.0     0.919428     0.095941     0.550445  Biso 1.000000     O
    O   1.0     0.919414     0.595420     0.550290  Biso 1.000000     O
    O   1.0    -0.000825     0.462427     0.130583  Biso 1.000000     O
    O   1.0    -0.000881     0.962470     0.130639  Biso 1.000000     O
    O   1.0     0.498929     0.462226     0.130619  Biso 1.000000     O
    O   1.0     0.498887     0.962443     0.130655  Biso 1.000000     O
    O   1.0     0.449786     0.367929     0.111259  Biso 1.000000     O
    O   1.0     0.450211     0.867961     0.111313  Biso 1.000000     O
    O   1.0     0.950550     0.367937     0.111282  Biso 1.000000     O
    O   1.0     0.950454     0.868022     0.111453  Biso 1.000000     O
    O   1.0     0.091168     0.330613     0.076349  Biso 1.000000     O
    O   1.0     0.091078     0.830400     0.076277  Biso 1.000000     O
    O   1.0     0.590805     0.330565     0.076094  Biso 1.000000     O
    O   1.0     0.590689     0.830377     0.076125  Biso 1.000000     O
    O   1.0     0.095804     0.419482     0.050456  Biso 1.000000     O
    O   1.0     0.095714     0.919290     0.050417  Biso 1.000000     O
    O   1.0     0.595327     0.419426     0.050168  Biso 1.000000     O
    O   1.0     0.595307     0.919274     0.050271  Biso 1.000000     O
    O   1.0     0.037330     0.500930     0.369475  Biso 1.000000     O
    O   1.0     0.037405     0.000000     0.369511  Biso 1.000000     O
    O   1.0     0.537359     0.500895     0.369301  Biso 1.000000     O
    O   1.0     0.537495     0.000000     0.369416  Biso 1.000000     O
    O   1.0     0.131779     0.049353     0.388397  Biso 1.000000     O
    O   1.0     0.131909     0.549236     0.388590  Biso 1.000000     O
    O   1.0     0.631992     0.049344     0.388615  Biso 1.000000     O
    O   1.0     0.631990     0.549090     0.388508  Biso 1.000000     O
    O   1.0     0.169392     0.408647     0.423800  Biso 1.000000     O
    O   1.0     0.169430     0.908755     0.423784  Biso 1.000000     O
    O   1.0     0.669147     0.408399     0.423609  Biso 1.000000     O
    O   1.0     0.669287     0.908714     0.423628  Biso 1.000000     O
    O   1.0     0.080542     0.404564     0.449732  Biso 1.000000     O
    O   1.0     0.080527     0.904040     0.449579  Biso 1.000000     O
    O   1.0     0.580365     0.404536     0.449711  Biso 1.000000     O
    O   1.0     0.580422     0.904075     0.449510  Biso 1.000000     O
    O   1.0     0.401136     0.099057     0.750096  Biso 1.000000     O
    O   1.0     0.401258     0.599237     0.750139  Biso 1.000000     O
    O   1.0     0.901046     0.099084     0.750034  Biso 1.000000     O
    O   1.0     0.901045     0.599110     0.750014  Biso 1.000000     O
    O   1.0     0.098918     0.400870     0.250007  Biso 1.000000     O
    O   1.0     0.098913     0.900895     0.249986  Biso 1.000000     O
    O   1.0     0.598694     0.400736     0.249880  Biso 1.000000     O
    O   1.0     0.598819     0.900923     0.249925  Biso 1.000000     O
   Br   1.0     0.153183     0.264788     0.310712  Biso 1.000000    Br
   Br   1.0     0.153190     0.764828     0.310778  Biso 1.000000    Br
   Br   1.0     0.653167     0.264820     0.310808  Biso 1.000000    Br
   Br   1.0     0.653225     0.764771     0.310915  Biso 1.000000    Br
   Br   1.0     0.006710     0.156183     0.367745  Biso 1.000000    Br
   Br   1.0     0.006658     0.656031     0.367695  Biso 1.000000    Br
   Br   1.0     0.506679     0.156246     0.367916  Biso 1.000000    Br
   Br   1.0     0.506767     0.656192     0.368019  Biso 1.000000    Br
   Br   1.0     0.234868     0.346759     0.189491  Biso 1.000000    Br
   Br   1.0     0.234913     0.846706     0.189391  Biso 1.000000    Br
   Br   1.0     0.734872     0.346626     0.189354  Biso 1.000000    Br
   Br   1.0     0.734893     0.846681     0.189461  Biso 1.000000    Br
   Br   1.0     0.343805     0.493304     0.132299  Biso 1.000000    Br
   Br   1.0     0.343862     0.993307     0.132465  Biso 1.000000    Br
   Br   1.0     0.843699     0.493202     0.132210  Biso 1.000000    Br
   Br   1.0     0.843753     0.993240     0.132328  Biso 1.000000    Br
   Br   1.0     0.346734     0.235207     0.689110  Biso 1.000000    Br
   Br   1.0     0.346791     0.735159     0.689212  Biso 1.000000    Br
   Br   1.0     0.846768     0.235152     0.689244  Biso 1.000000    Br
   Br   1.0     0.846775     0.735190     0.689305  Biso 1.000000    Br
   Br   1.0     0.493189     0.343784     0.631999  Biso 1.000000    Br
   Br   1.0     0.493282     0.843734     0.632107  Biso 1.000000    Br
   Br   1.0     0.993301     0.343946     0.632323  Biso 1.000000    Br
   Br   1.0     0.993251     0.843802     0.632280  Biso 1.000000    Br
   Br   1.0     0.265062     0.153297     0.810557  Biso 1.000000    Br
   Br   1.0     0.265087     0.653352     0.810663  Biso 1.000000    Br
   Br   1.0     0.765046     0.153274     0.810630  Biso 1.000000    Br
   Br   1.0     0.765092     0.653222     0.810532  Biso 1.000000    Br
   Br   1.0     0.156210     0.006741     0.867698  Biso 1.000000    Br
   Br   1.0     0.156262     0.506777     0.867811  Biso 1.000000    Br
   Br   1.0     0.656096     0.006672     0.867558  Biso 1.000000    Br
   Br   1.0     0.656154     0.506673     0.867719  Biso 1.000000    Br
   Cd   1.0     0.390920     0.010326     0.782102  Biso 1.000000    Cd
   Cd   1.0     0.390913     0.510426     0.782175  Biso 1.000000    Cd
   Cd   1.0     0.890798     0.010346     0.782121  Biso 1.000000    Cd
   Cd   1.0     0.890739     0.510302     0.781998  Biso 1.000000    Cd
   Cd   1.0     0.489905     0.109238     0.718058  Biso 1.000000    Cd
   Cd   1.0     0.490020     0.609123     0.718098  Biso 1.000000    Cd
   Cd   1.0     0.989818     0.109292     0.717966  Biso 1.000000    Cd
   Cd   1.0     0.989817     0.609111     0.717975  Biso 1.000000    Cd
   Cd   1.0     0.109222     0.489679     0.218020  Biso 1.000000    Cd
   Cd   1.0     0.109160     0.989633     0.217899  Biso 1.000000    Cd
   Cd   1.0     0.609046     0.489549     0.217846  Biso 1.000000    Cd
   Cd   1.0     0.609039     0.989653     0.217919  Biso 1.000000    Cd
   Cd   1.0     0.010144     0.390870     0.282044  Biso 1.000000    Cd
   Cd   1.0     0.010140     0.890687     0.282055  Biso 1.000000    Cd
   Cd   1.0     0.509936     0.390855     0.281926  Biso 1.000000    Cd
   Cd   1.0     0.510052     0.890741     0.281963  Biso 1.000000    Cd
