#======================================================================

# CRYSTAL DATA

#----------------------------------------------------------------------

data_VESTA_phase_1


_pd_phase_name                         MOF
_cell_length_a                         20.29700
_cell_length_b                         22.80700
_cell_length_c                         18.08900
_cell_angle_alpha                      99.85800
_cell_angle_beta                       89.93400
_cell_angle_gamma                      116.45800
_symmetry_space_group_name_H-M         "P 1"
_symmetry_Int_Tables_number            1

loop_
_symmetry_equiv_pos_as_xyz
   "x, y, z"

loop_
   _atom_site_label
   _atom_site_occupancy
   _atom_site_fract_x
   _atom_site_fract_y
   _atom_site_fract_z
   _atom_site_adp_type
   _atom_site_B_iso_or_equiv
   _atom_site_type_symbol
    H   1.0     0.198018     0.180211     0.835998  Biso 1.000000     H
    H   1.0     0.198021     0.680217     0.835997  Biso 1.000000     H
    H   1.0     0.698012     0.180210     0.835998  Biso 1.000000     H
    H   1.0     0.698018     0.680217     0.835995  Biso 1.000000     H
    H   1.0     0.127122     0.076194     0.745565  Biso 1.000000     H
    H   1.0     0.127125     0.576200     0.745564  Biso 1.000000     H
    H   1.0     0.627116     0.076193     0.745564  Biso 1.000000     H
    H   1.0     0.627122     0.576200     0.745562  Biso 1.000000     H
    H   1.0     0.414900     0.064349     0.646324  Biso 1.000000     H
    H   1.0     0.414905     0.564354     0.646324  Biso 1.000000     H
    H   1.0     0.914894     0.064347     0.646328  Biso 1.000000     H
    H   1.0     0.914899     0.564354     0.646324  Biso 1.000000     H
    H   1.0     0.004212     0.165641     0.656370  Biso 1.000000     H
    H   1.0     0.004218     0.665648     0.656365  Biso 1.000000     H
    H   1.0     0.504210     0.165642     0.656367  Biso 1.000000     H
    H   1.0     0.504214     0.665647     0.656365  Biso 1.000000     H
    H   1.0     0.097065     0.014604     0.627336  Biso 1.000000     H
    H   1.0     0.097067     0.514607     0.627337  Biso 1.000000     H
    H   1.0     0.597059     0.014602     0.627336  Biso 1.000000     H
    H   1.0     0.597064     0.514607     0.627335  Biso 1.000000     H
    H   1.0     0.073096     0.268785     0.751135  Biso 1.000000     H
    H   1.0     0.073101     0.768792     0.751129  Biso 1.000000     H
    H   1.0     0.573094     0.268786     0.751132  Biso 1.000000     H
    H   1.0     0.573098     0.768791     0.751129  Biso 1.000000     H
    H   1.0     0.383242     0.376408     0.516304  Biso 1.000000     H
    H   1.0     0.383246     0.876411     0.516302  Biso 1.000000     H
    H   1.0     0.883237     0.376408     0.516307  Biso 1.000000     H
    H   1.0     0.883242     0.876411     0.516303  Biso 1.000000     H
    H   1.0     0.517897     0.319549     0.664021  Biso 1.000000     H
    H   1.0     0.517901     0.819555     0.664021  Biso 1.000000     H
    H   1.0     0.000000     0.319546     0.664023  Biso 1.000000     H
    H   1.0     0.000000     0.819555     0.664018  Biso 1.000000     H
    H   1.0     0.051152     0.423603     0.754452  Biso 1.000000     H
    H   1.0     0.051158     0.923611     0.754449  Biso 1.000000     H
    H   1.0     0.551148     0.423605     0.754452  Biso 1.000000     H
    H   1.0     0.551152     0.923610     0.754452  Biso 1.000000     H
    H   1.0     0.350642     0.435651     0.853578  Biso 1.000000     H
    H   1.0     0.350646     0.935656     0.853578  Biso 1.000000     H
    H   1.0     0.850638     0.435650     0.853578  Biso 1.000000     H
    H   1.0     0.850643     0.935655     0.853573  Biso 1.000000     H
    H   1.0     0.338492     0.334423     0.843710  Biso 1.000000     H
    H   1.0     0.338494     0.834428     0.843706  Biso 1.000000     H
    H   1.0     0.838488     0.334422     0.843712  Biso 1.000000     H
    H   1.0     0.838493     0.834427     0.843705  Biso 1.000000     H
    H   1.0     0.082559     0.485333     0.872726  Biso 1.000000     H
    H   1.0     0.082563     0.985338     0.872725  Biso 1.000000     H
    H   1.0     0.582555     0.485333     0.872726  Biso 1.000000     H
    H   1.0     0.582557     0.985337     0.872726  Biso 1.000000     H
    H   1.0     0.304101     0.231263     0.748922  Biso 1.000000     H
    H   1.0     0.304103     0.731268     0.748918  Biso 1.000000     H
    H   1.0     0.804096     0.231261     0.748925  Biso 1.000000     H
    H   1.0     0.804103     0.731267     0.748918  Biso 1.000000     H
    H   1.0     0.006868     0.123554     0.983669  Biso 1.000000     H
    H   1.0     0.006872     0.623557     0.983668  Biso 1.000000     H
    H   1.0     0.506865     0.123555     0.983671  Biso 1.000000     H
    H   1.0     0.506868     0.623558     0.983669  Biso 1.000000     H
    H   1.0     0.302002     0.319810     0.163996  Biso 1.000000     H
    H   1.0     0.302008     0.819816     0.163991  Biso 1.000000     H
    H   1.0     0.801999     0.319809     0.163993  Biso 1.000000     H
    H   1.0     0.802003     0.819815     0.163991  Biso 1.000000     H
    H   1.0     0.372899     0.423827     0.254428  Biso 1.000000     H
    H   1.0     0.372906     0.923832     0.254424  Biso 1.000000     H
    H   1.0     0.872896     0.423826     0.254426  Biso 1.000000     H
    H   1.0     0.872900     0.923832     0.254425  Biso 1.000000     H
    H   1.0     0.085120     0.435671     0.353671  Biso 1.000000     H
    H   1.0     0.085126     0.935678     0.353667  Biso 1.000000     H
    H   1.0     0.585117     0.435673     0.353669  Biso 1.000000     H
    H   1.0     0.585122     0.935677     0.353668  Biso 1.000000     H
    H   1.0     0.495806     0.334378     0.343625  Biso 1.000000     H
    H   1.0     0.495811     0.834382     0.343621  Biso 1.000000     H
    H   1.0     0.995800     0.334376     0.343626  Biso 1.000000     H
    H   1.0     0.995808     0.834383     0.343620  Biso 1.000000     H
    H   1.0     0.402954     0.485415     0.372653  Biso 1.000000     H
    H   1.0     0.402959     0.985419     0.372651  Biso 1.000000     H
    H   1.0     0.902949     0.485414     0.372652  Biso 1.000000     H
    H   1.0     0.902953     0.985418     0.372652  Biso 1.000000     H
    H   1.0     0.426923     0.231235     0.248859  Biso 1.000000     H
    H   1.0     0.426927     0.731239     0.248855  Biso 1.000000     H
    H   1.0     0.926917     0.231233     0.248860  Biso 1.000000     H
    H   1.0     0.926924     0.731240     0.248854  Biso 1.000000     H
    H   1.0     0.116773     0.123615     0.483686  Biso 1.000000     H
    H   1.0     0.116778     0.623618     0.483683  Biso 1.000000     H
    H   1.0     0.616770     0.123616     0.483686  Biso 1.000000     H
    H   1.0     0.616774     0.623619     0.483683  Biso 1.000000     H
    H   1.0    -0.017885     0.180472     0.335970  Biso 1.000000     H
    H   1.0    -0.017877     0.680480     0.335965  Biso 1.000000     H
    H   1.0     0.482114     0.180474     0.335968  Biso 1.000000     H
    H   1.0     0.482117     0.680478     0.335965  Biso 1.000000     H
    H   1.0     0.448859     0.076417     0.245538  Biso 1.000000     H
    H   1.0     0.448862     0.576421     0.245535  Biso 1.000000     H
    H   1.0     0.948852     0.076415     0.245539  Biso 1.000000     H
    H   1.0     0.948858     0.576422     0.245535  Biso 1.000000     H
    H   1.0     0.149371     0.064372     0.146422  Biso 1.000000     H
    H   1.0     0.149376     0.564376     0.146419  Biso 1.000000     H
    H   1.0     0.649369     0.064370     0.146422  Biso 1.000000     H
    H   1.0     0.649371     0.564376     0.146418  Biso 1.000000     H
    H   1.0     0.161518     0.165595     0.156281  Biso 1.000000     H
    H   1.0     0.161522     0.665599     0.156274  Biso 1.000000     H
    H   1.0     0.661517     0.165593     0.156283  Biso 1.000000     H
    H   1.0     0.661519     0.665599     0.156277  Biso 1.000000     H
    H   1.0     0.417455     0.014679     0.127263  Biso 1.000000     H
    H   1.0     0.417457     0.514682     0.127259  Biso 1.000000     H
    H   1.0     0.917448     0.014679     0.127261  Biso 1.000000     H
    H   1.0     0.917452     0.514682     0.127259  Biso 1.000000     H
    H   1.0     0.195911     0.268755     0.251068  Biso 1.000000     H
    H   1.0     0.195917     0.768760     0.251060  Biso 1.000000     H
    H   1.0     0.695911     0.268754     0.251069  Biso 1.000000     H
    H   1.0     0.695914     0.768759     0.251064  Biso 1.000000     H
    H   1.0     0.493158     0.376468     0.016320  Biso 1.000000     H
    H   1.0     0.493162     0.876471     0.016319  Biso 1.000000     H
    H   1.0     0.993154     0.376468     0.016321  Biso 1.000000     H
    H   1.0     0.993158     0.876473     0.016319  Biso 1.000000     H
    C   1.0     0.155119     0.177139     0.797245  Biso 1.000000     C
    C   1.0     0.155122     0.677145     0.797244  Biso 1.000000     C
    C   1.0     0.655114     0.177138     0.797244  Biso 1.000000     C
    C   1.0     0.655120     0.677145     0.797241  Biso 1.000000     C
    C   1.0     0.021169     0.390777     0.543884  Biso 1.000000     C
    C   1.0     0.021175     0.890781     0.543879  Biso 1.000000     C
    C   1.0     0.521166     0.390778     0.543880  Biso 1.000000     C
    C   1.0     0.521169     0.890780     0.543880  Biso 1.000000     C
    C   1.0     0.115362     0.118351     0.745368  Biso 1.000000     C
    C   1.0     0.115365     0.618357     0.745366  Biso 1.000000     C
    C   1.0     0.615357     0.118350     0.745367  Biso 1.000000     C
    C   1.0     0.615363     0.618357     0.745364  Biso 1.000000     C
    C   1.0     0.438177     0.030943     0.623558  Biso 1.000000     C
    C   1.0     0.438182     0.530948     0.623557  Biso 1.000000     C
    C   1.0     0.938173     0.030942     0.623560  Biso 1.000000     C
    C   1.0     0.938176     0.530947     0.623558  Biso 1.000000     C
    C   1.0     0.392123     0.470032     0.576980  Biso 1.000000     C
    C   1.0     0.392126     0.970034     0.576979  Biso 1.000000     C
    C   1.0     0.892118     0.470032     0.576981  Biso 1.000000     C
    C   1.0     0.892121     0.970033     0.576982  Biso 1.000000     C
    C   1.0     0.045488     0.167863     0.696652  Biso 1.000000     C
    C   1.0     0.045493     0.667869     0.696648  Biso 1.000000     C
    C   1.0     0.545485     0.167863     0.696649  Biso 1.000000     C
    C   1.0     0.545490     0.667869     0.696647  Biso 1.000000     C
    C   1.0     0.058853     0.112131     0.694962  Biso 1.000000     C
    C   1.0     0.058857     0.612137     0.694959  Biso 1.000000     C
    C   1.0     0.558849     0.112131     0.694960  Biso 1.000000     C
    C   1.0     0.558854     0.612137     0.694958  Biso 1.000000     C
    C   1.0     0.039466     0.002653     0.614938  Biso 1.000000     C
    C   1.0     0.039469     0.502657     0.614939  Biso 1.000000     C
    C   1.0     0.539461     0.002652     0.614937  Biso 1.000000     C
    C   1.0     0.539466     0.502657     0.614936  Biso 1.000000     C
    C   1.0     0.493143     0.440837     0.569931  Biso 1.000000     C
    C   1.0     0.493147     0.940839     0.569930  Biso 1.000000     C
    C   1.0     0.993138     0.440837     0.569932  Biso 1.000000     C
    C   1.0     0.993143     0.940839     0.569931  Biso 1.000000     C
    C   1.0     0.012361     0.048227     0.643512  Biso 1.000000     C
    C   1.0     0.012365     0.548232     0.643510  Biso 1.000000     C
    C   1.0     0.512357     0.048228     0.643510  Biso 1.000000     C
    C   1.0     0.512362     0.548233     0.643509  Biso 1.000000     C
    C   1.0     0.084689     0.226307     0.748821  Biso 1.000000     C
    C   1.0     0.084694     0.726313     0.748817  Biso 1.000000     C
    C   1.0     0.584686     0.226307     0.748819  Biso 1.000000     C
    C   1.0     0.584691     0.726313     0.748816  Biso 1.000000     C
    C   1.0     0.139406     0.231486     0.800623  Biso 1.000000     C
    C   1.0     0.139411     0.731492     0.800619  Biso 1.000000     C
    C   1.0     0.639402     0.231486     0.800621  Biso 1.000000     C
    C   1.0     0.639407     0.731491     0.800619  Biso 1.000000     C
    C   1.0     0.176784     0.293662     0.858039  Biso 1.000000     C
    C   1.0     0.176786     0.793667     0.858038  Biso 1.000000     C
    C   1.0     0.676780     0.293661     0.858039  Biso 1.000000     C
    C   1.0     0.676785     0.793667     0.858036  Biso 1.000000     C
    C   1.0     0.419375     0.424405     0.551084  Biso 1.000000     C
    C   1.0     0.419378     0.924406     0.551084  Biso 1.000000     C
    C   1.0     0.919370     0.424404     0.551087  Biso 1.000000     C
    C   1.0     0.919375     0.924407     0.551084  Biso 1.000000     C
    C   1.0     0.314172     0.453289     0.553961  Biso 1.000000     C
    C   1.0     0.314175     0.953291     0.553960  Biso 1.000000     C
    C   1.0     0.814166     0.453288     0.553962  Biso 1.000000     C
    C   1.0     0.814170     0.953290     0.553962  Biso 1.000000     C
    C   1.0     0.478025     0.322705     0.702772  Biso 1.000000     C
    C   1.0     0.478029     0.822710     0.702771  Biso 1.000000     C
    C   1.0     0.978020     0.322703     0.702772  Biso 1.000000     C
    C   1.0     0.978027     0.822711     0.702767  Biso 1.000000     C
    C   1.0     0.130440     0.109225     0.956160  Biso 1.000000     C
    C   1.0     0.130444     0.609228     0.956159  Biso 1.000000     C
    C   1.0     0.630435     0.109224     0.956165  Biso 1.000000     C
    C   1.0     0.630439     0.609227     0.956162  Biso 1.000000     C
    C   1.0     0.497130     0.381509     0.754659  Biso 1.000000     C
    C   1.0     0.497133     0.881514     0.754658  Biso 1.000000     C
    C   1.0     0.997125     0.381508     0.754659  Biso 1.000000     C
    C   1.0     0.997131     0.881515     0.754655  Biso 1.000000     C
    C   1.0     0.407312     0.469041     0.876394  Biso 1.000000     C
    C   1.0     0.407315     0.969046     0.876395  Biso 1.000000     C
    C   1.0     0.907307     0.469041     0.876394  Biso 1.000000     C
    C   1.0     0.907311     0.969046     0.876390  Biso 1.000000     C
    C   1.0     0.422139     0.029953     0.922966  Biso 1.000000     C
    C   1.0     0.422143     0.529955     0.922966  Biso 1.000000     C
    C   1.0     0.922135     0.029952     0.922965  Biso 1.000000     C
    C   1.0     0.922139     0.529954     0.922967  Biso 1.000000     C
    C   1.0     0.377580     0.332141     0.803402  Biso 1.000000     C
    C   1.0     0.377583     0.832147     0.803399  Biso 1.000000     C
    C   1.0     0.877575     0.332140     0.803403  Biso 1.000000     C
    C   1.0     0.877581     0.832146     0.803397  Biso 1.000000     C
    C   1.0     0.446792     0.387812     0.805075  Biso 1.000000     C
    C   1.0     0.446795     0.887818     0.805074  Biso 1.000000     C
    C   1.0     0.946787     0.387811     0.805077  Biso 1.000000     C
    C   1.0     0.946793     0.887817     0.805072  Biso 1.000000     C
    C   1.0     0.036905     0.497297     0.885098  Biso 1.000000     C
    C   1.0     0.036910     0.997302     0.885096  Biso 1.000000     C
    C   1.0     0.536901     0.497297     0.885099  Biso 1.000000     C
    C   1.0     0.536904     0.997301     0.885099  Biso 1.000000     C
    C   1.0     0.052373     0.059115     0.930097  Biso 1.000000     C
    C   1.0     0.052377     0.559117     0.930097  Biso 1.000000     C
    C   1.0     0.552368     0.059115     0.930097  Biso 1.000000     C
    C   1.0     0.552372     0.559118     0.930096  Biso 1.000000     C
    C   1.0     0.464223     0.451737     0.856498  Biso 1.000000     C
    C   1.0     0.464226     0.951741     0.856498  Biso 1.000000     C
    C   1.0     0.964219     0.451737     0.856497  Biso 1.000000     C
    C   1.0     0.964223     0.951742     0.856494  Biso 1.000000     C
    C   1.0     0.358257     0.273692     0.751216  Biso 1.000000     C
    C   1.0     0.358260     0.773697     0.751214  Biso 1.000000     C
    C   1.0     0.858252     0.273691     0.751217  Biso 1.000000     C
    C   1.0     0.858258     0.773697     0.751211  Biso 1.000000     C
    C   1.0     0.407849     0.268432     0.699407  Biso 1.000000     C
    C   1.0     0.407852     0.768437     0.699404  Biso 1.000000     C
    C   1.0     0.907845     0.268429     0.699409  Biso 1.000000     C
    C   1.0     0.907852     0.768436     0.699404  Biso 1.000000     C
    C   1.0     0.382930     0.206274     0.641943  Biso 1.000000     C
    C   1.0     0.382934     0.706279     0.641942  Biso 1.000000     C
    C   1.0     0.882923     0.206273     0.641943  Biso 1.000000     C
    C   1.0     0.882931     0.706279     0.641938  Biso 1.000000     C
    C   1.0     0.495014     0.075557     0.948901  Biso 1.000000     C
    C   1.0     0.495018     0.575560     0.948899  Biso 1.000000     C
    C   1.0     0.995010     0.075558     0.948896  Biso 1.000000     C
    C   1.0     0.995014     0.575561     0.948895  Biso 1.000000     C
    C   1.0     0.360914     0.046713     0.945967  Biso 1.000000     C
    C   1.0     0.360917     0.546715     0.945965  Biso 1.000000     C
    C   1.0     0.860909     0.046712     0.945960  Biso 1.000000     C
    C   1.0     0.860913     0.546715     0.945962  Biso 1.000000     C
    C   1.0     0.344901     0.322881     0.202749  Biso 1.000000     C
    C   1.0     0.344907     0.822887     0.202744  Biso 1.000000     C
    C   1.0     0.844895     0.322880     0.202748  Biso 1.000000     C
    C   1.0     0.844901     0.822886     0.202745  Biso 1.000000     C
    C   1.0     0.478843     0.109241     0.456105  Biso 1.000000     C
    C   1.0     0.478847     0.609243     0.456106  Biso 1.000000     C
    C   1.0     0.978836     0.109238     0.456109  Biso 1.000000     C
    C   1.0     0.978841     0.609242     0.456109  Biso 1.000000     C
    C   1.0     0.384659     0.381670     0.254626  Biso 1.000000     C
    C   1.0     0.384665     0.881675     0.254622  Biso 1.000000     C
    C   1.0     0.884654     0.381668     0.254625  Biso 1.000000     C
    C   1.0     0.884659     0.881674     0.254622  Biso 1.000000     C
    C   1.0     0.061841     0.469077     0.376435  Biso 1.000000     C
    C   1.0     0.061847     0.969083     0.376432  Biso 1.000000     C
    C   1.0     0.561839     0.469079     0.376434  Biso 1.000000     C
    C   1.0     0.561843     0.969083     0.376433  Biso 1.000000     C
    C   1.0     0.107897     0.029993     0.423010  Biso 1.000000     C
    C   1.0     0.107900     0.529995     0.423009  Biso 1.000000     C
    C   1.0     0.607892     0.029992     0.423012  Biso 1.000000     C
    C   1.0     0.607896     0.529996     0.423010  Biso 1.000000     C
    C   1.0     0.454531     0.332157     0.303342  Biso 1.000000     C
    C   1.0     0.454536     0.832161     0.303338  Biso 1.000000     C
    C   1.0     0.954525     0.332155     0.303344  Biso 1.000000     C
    C   1.0     0.954532     0.832162     0.303338  Biso 1.000000     C
    C   1.0     0.441167     0.387889     0.305031  Biso 1.000000     C
    C   1.0     0.441172     0.887894     0.305028  Biso 1.000000     C
    C   1.0     0.941162     0.387888     0.305031  Biso 1.000000     C
    C   1.0     0.941168     0.887894     0.305027  Biso 1.000000     C
    C   1.0     0.460553     0.497367     0.385052  Biso 1.000000     C
    C   1.0     0.460557     0.997371     0.385050  Biso 1.000000     C
    C   1.0     0.960548     0.497365     0.385052  Biso 1.000000     C
    C   1.0     0.960552     0.997370     0.385051  Biso 1.000000     C
    C   1.0     0.006873     0.059184     0.430057  Biso 1.000000     C
    C   1.0     0.006878     0.559187     0.430055  Biso 1.000000     C
    C   1.0     0.506869     0.059184     0.430058  Biso 1.000000     C
    C   1.0     0.506873     0.559188     0.430057  Biso 1.000000     C
    C   1.0     0.487659     0.451793     0.356481  Biso 1.000000     C
    C   1.0     0.487664     0.951797     0.356478  Biso 1.000000     C
    C   1.0     0.987653     0.451790     0.356482  Biso 1.000000     C
    C   1.0     0.987658     0.951796     0.356479  Biso 1.000000     C
    C   1.0     0.415330     0.273713     0.251173  Biso 1.000000     C
    C   1.0     0.415335     0.773718     0.251168  Biso 1.000000     C
    C   1.0     0.915324     0.273711     0.251175  Biso 1.000000     C
    C   1.0     0.915331     0.773718     0.251169  Biso 1.000000     C
    C   1.0     0.360614     0.268535     0.199371  Biso 1.000000     C
    C   1.0     0.360617     0.768539     0.199368  Biso 1.000000     C
    C   1.0     0.860611     0.268535     0.199369  Biso 1.000000     C
    C   1.0     0.860615     0.768540     0.199366  Biso 1.000000     C
    C   1.0     0.323237     0.206360     0.141954  Biso 1.000000     C
    C   1.0     0.323242     0.706365     0.141949  Biso 1.000000     C
    C   1.0     0.823230     0.206358     0.141954  Biso 1.000000     C
    C   1.0     0.823237     0.706364     0.141951  Biso 1.000000     C
    C   1.0     0.080641     0.075618     0.448907  Biso 1.000000     C
    C   1.0     0.080645     0.575620     0.448907  Biso 1.000000     C
    C   1.0     0.580639     0.075620     0.448904  Biso 1.000000     C
    C   1.0     0.580642     0.575623     0.448904  Biso 1.000000     C
    C   1.0     0.185848     0.046739     0.446033  Biso 1.000000     C
    C   1.0     0.185850     0.546739     0.446036  Biso 1.000000     C
    C   1.0     0.685845     0.046740     0.446031  Biso 1.000000     C
    C   1.0     0.685848     0.546742     0.446031  Biso 1.000000     C
    C   1.0     0.021986     0.177315     0.297220  Biso 1.000000     C
    C   1.0     0.021993     0.677322     0.297215  Biso 1.000000     C
    C   1.0     0.521986     0.177315     0.297220  Biso 1.000000     C
    C   1.0     0.521988     0.677321     0.297215  Biso 1.000000     C
    C   1.0     0.369582     0.390789     0.043822  Biso 1.000000     C
    C   1.0     0.369586     0.890791     0.043829  Biso 1.000000     C
    C   1.0     0.869578     0.390788     0.043826  Biso 1.000000     C
    C   1.0     0.869581     0.890792     0.043823  Biso 1.000000     C
    C   1.0     0.002880     0.118510     0.245332  Biso 1.000000     C
    C   1.0     0.002887     0.618517     0.245328  Biso 1.000000     C
    C   1.0     0.502880     0.118510     0.245333  Biso 1.000000     C
    C   1.0     0.502881     0.618516     0.245328  Biso 1.000000     C
    C   1.0     0.092703     0.030980     0.123602  Biso 1.000000     C
    C   1.0     0.092708     0.530984     0.123600  Biso 1.000000     C
    C   1.0     0.592701     0.030978     0.123603  Biso 1.000000     C
    C   1.0     0.592703     0.530984     0.123599  Biso 1.000000     C
    C   1.0     0.077882     0.470072     0.077027  Biso 1.000000     C
    C   1.0     0.077885     0.970076     0.077029  Biso 1.000000     C
    C   1.0     0.577878     0.470072     0.077029  Biso 1.000000     C
    C   1.0     0.577881     0.970074     0.077026  Biso 1.000000     C
    C   1.0     0.122430     0.167877     0.196589  Biso 1.000000     C
    C   1.0     0.122435     0.667882     0.196583  Biso 1.000000     C
    C   1.0     0.622430     0.167875     0.196591  Biso 1.000000     C
    C   1.0     0.622431     0.667881     0.196584  Biso 1.000000     C
    C   1.0     0.053218     0.112206     0.194916  Biso 1.000000     C
    C   1.0     0.053223     0.612211     0.194911  Biso 1.000000     C
    C   1.0     0.553217     0.112206     0.194916  Biso 1.000000     C
    C   1.0     0.553219     0.612210     0.194912  Biso 1.000000     C
    C   1.0     0.463110     0.002718     0.114893  Biso 1.000000     C
    C   1.0     0.463113     0.502722     0.114889  Biso 1.000000     C
    C   1.0     0.963104     0.002718     0.114890  Biso 1.000000     C
    C   1.0     0.963108     0.502722     0.114889  Biso 1.000000     C
    C   1.0     0.447647     0.440902     0.069892  Biso 1.000000     C
    C   1.0     0.447651     0.940906     0.069890  Biso 1.000000     C
    C   1.0     0.947643     0.440902     0.069891  Biso 1.000000     C
    C   1.0     0.947645     0.940906     0.069891  Biso 1.000000     C
    C   1.0     0.035789     0.048281     0.143494  Biso 1.000000     C
    C   1.0     0.035793     0.548285     0.143492  Biso 1.000000     C
    C   1.0     0.535787     0.048279     0.143497  Biso 1.000000     C
    C   1.0     0.535789     0.548286     0.143491  Biso 1.000000     C
    C   1.0     0.141754     0.226326     0.248774  Biso 1.000000     C
    C   1.0     0.141761     0.726332     0.248768  Biso 1.000000     C
    C   1.0     0.641755     0.226325     0.248777  Biso 1.000000     C
    C   1.0     0.641756     0.726331     0.248769  Biso 1.000000     C
    C   1.0     0.092163     0.231588     0.300585  Biso 1.000000     C
    C   1.0     0.092170     0.731595     0.300578  Biso 1.000000     C
    C   1.0     0.592161     0.231590     0.300582  Biso 1.000000     C
    C   1.0     0.592166     0.731592     0.300581  Biso 1.000000     C
    C   1.0     0.117086     0.293746     0.358049  Biso 1.000000     C
    C   1.0     0.117094     0.793752     0.358044  Biso 1.000000     C
    C   1.0     0.617087     0.293746     0.358050  Biso 1.000000     C
    C   1.0     0.617088     0.793752     0.358044  Biso 1.000000     C
    C   1.0     0.005009     0.424463     0.051094  Biso 1.000000     C
    C   1.0     0.005012     0.924468     0.051091  Biso 1.000000     C
    C   1.0     0.505005     0.424465     0.051090  Biso 1.000000     C
    C   1.0     0.505007     0.924464     0.051096  Biso 1.000000     C
    C   1.0     0.139113     0.453318     0.054034  Biso 1.000000     C
    C   1.0     0.139117     0.953323     0.054033  Biso 1.000000     C
    C   1.0     0.639109     0.453320     0.054030  Biso 1.000000     C
    C   1.0     0.639112     0.953318     0.054037  Biso 1.000000     C
    O   1.0     0.224148     0.298808     0.910827  Biso 1.000000     O
    O   1.0     0.224151     0.798814     0.910825  Biso 1.000000     O
    O   1.0     0.724144     0.298808     0.910826  Biso 1.000000     O
    O   1.0     0.724149     0.798813     0.910823  Biso 1.000000     O
    O   1.0     0.163336     0.342354     0.856349  Biso 1.000000     O
    O   1.0     0.163339     0.842360     0.856348  Biso 1.000000     O
    O   1.0     0.663332     0.342354     0.856348  Biso 1.000000     O
    O   1.0     0.663335     0.842359     0.856349  Biso 1.000000     O
    O   1.0     0.271000     0.393836     0.521583  Biso 1.000000     O
    O   1.0     0.271004     0.893838     0.521582  Biso 1.000000     O
    O   1.0     0.770995     0.393835     0.521584  Biso 1.000000     O
    O   1.0     0.770999     0.893837     0.521583  Biso 1.000000     O
    O   1.0     0.291928     0.498495     0.566198  Biso 1.000000     O
    O   1.0     0.291931     0.998497     0.566196  Biso 1.000000     O
    O   1.0     0.791922     0.498494     0.566196  Biso 1.000000     O
    O   1.0     0.791926     0.998496     0.566198  Biso 1.000000     O
    O   1.0     0.471860     0.332373     0.512835  Biso 1.000000     O
    O   1.0     0.471864     0.832375     0.512833  Biso 1.000000     O
    O   1.0     0.971855     0.332372     0.512836  Biso 1.000000     O
    O   1.0     0.971862     0.832376     0.512832  Biso 1.000000     O
    O   1.0     0.089549     0.407452     0.556316  Biso 1.000000     O
    O   1.0     0.089554     0.907456     0.556314  Biso 1.000000     O
    O   1.0     0.589545     0.407451     0.556315  Biso 1.000000     O
    O   1.0     0.589548     0.907454     0.556315  Biso 1.000000     O
    O   1.0     0.425261     0.201023     0.589206  Biso 1.000000     O
    O   1.0     0.425266     0.701028     0.589205  Biso 1.000000     O
    O   1.0     0.925256     0.201021     0.589208  Biso 1.000000     O
    O   1.0     0.925262     0.701028     0.589201  Biso 1.000000     O
    O   1.0     0.320606     0.157711     0.643558  Biso 1.000000     O
    O   1.0     0.320611     0.657716     0.643557  Biso 1.000000     O
    O   1.0     0.820600     0.157709     0.643560  Biso 1.000000     O
    O   1.0     0.820611     0.657714     0.643558  Biso 1.000000     O
    O   1.0     0.377215     0.106177     0.978324  Biso 1.000000     O
    O   1.0     0.377218     0.606179     0.978324  Biso 1.000000     O
    O   1.0     0.877209     0.106174     0.978323  Biso 1.000000     O
    O   1.0     0.877214     0.606178     0.978323  Biso 1.000000     O
    O   1.0     0.293440     0.001500     0.933760  Biso 1.000000     O
    O   1.0     0.293443     0.501502     0.933759  Biso 1.000000     O
    O   1.0     0.793435     0.001498     0.933756  Biso 1.000000     O
    O   1.0     0.793439     0.501501     0.933759  Biso 1.000000     O
    O   1.0     0.139435     0.167595     0.987206  Biso 1.000000     O
    O   1.0     0.139439     0.667597     0.987203  Biso 1.000000     O
    O   1.0     0.639431     0.167595     0.987205  Biso 1.000000     O
    O   1.0     0.639435     0.667598     0.987203  Biso 1.000000     O
    O   1.0     0.182226     0.092645     0.943736  Biso 1.000000     O
    O   1.0     0.182230     0.592647     0.943734  Biso 1.000000     O
    O   1.0     0.682221     0.092645     0.943735  Biso 1.000000     O
    O   1.0     0.682225     0.592648     0.943734  Biso 1.000000     O
    O   1.0     0.275864     0.201210     0.089174  Biso 1.000000     O
    O   1.0     0.275870     0.701215     0.089169  Biso 1.000000     O
    O   1.0     0.775862     0.201210     0.089171  Biso 1.000000     O
    O   1.0     0.775866     0.701215     0.089168  Biso 1.000000     O
    O   1.0     0.336695     0.157672     0.143635  Biso 1.000000     O
    O   1.0     0.336696     0.657675     0.143635  Biso 1.000000     O
    O   1.0     0.836691     0.157670     0.143635  Biso 1.000000     O
    O   1.0     0.836695     0.657676     0.143634  Biso 1.000000     O
    O   1.0     0.229020     0.106194     0.478403  Biso 1.000000     O
    O   1.0     0.229023     0.606195     0.478403  Biso 1.000000     O
    O   1.0     0.729016     0.106194     0.478404  Biso 1.000000     O
    O   1.0     0.729020     0.606196     0.478403  Biso 1.000000     O
    O   1.0     0.208094     0.001533     0.433803  Biso 1.000000     O
    O   1.0     0.208096     0.501534     0.433804  Biso 1.000000     O
    O   1.0     0.708089     0.001533     0.433806  Biso 1.000000     O
    O   1.0     0.708092     0.501536     0.433804  Biso 1.000000     O
    O   1.0     0.028148     0.167646     0.487151  Biso 1.000000     O
    O   1.0     0.028155     0.667650     0.487146  Biso 1.000000     O
    O   1.0     0.528146     0.167647     0.487150  Biso 1.000000     O
    O   1.0     0.528150     0.667650     0.487149  Biso 1.000000     O
    O   1.0     0.410462     0.092559     0.443675  Biso 1.000000     O
    O   1.0     0.410466     0.592563     0.443675  Biso 1.000000     O
    O   1.0     0.910456     0.092558     0.443674  Biso 1.000000     O
    O   1.0     0.910461     0.592563     0.443673  Biso 1.000000     O
    O   1.0     0.074757     0.298998     0.410788  Biso 1.000000     O
    O   1.0     0.074763     0.799005     0.410780  Biso 1.000000     O
    O   1.0     0.574755     0.299001     0.410786  Biso 1.000000     O
    O   1.0     0.574758     0.799004     0.410782  Biso 1.000000     O
    O   1.0     0.179408     0.342309     0.356430  Biso 1.000000     O
    O   1.0     0.179418     0.842314     0.356427  Biso 1.000000     O
    O   1.0     0.679407     0.342310     0.356428  Biso 1.000000     O
    O   1.0     0.679413     0.842312     0.356429  Biso 1.000000     O
    O   1.0     0.122816     0.393858     0.021662  Biso 1.000000     O
    O   1.0     0.122819     0.893862     0.021662  Biso 1.000000     O
    O   1.0     0.622812     0.393858     0.021661  Biso 1.000000     O
    O   1.0     0.622814     0.893859     0.021662  Biso 1.000000     O
    O   1.0     0.206585     0.498534     0.066253  Biso 1.000000     O
    O   1.0     0.206588     0.998538     0.066255  Biso 1.000000     O
    O   1.0     0.706581     0.498534     0.066253  Biso 1.000000     O
    O   1.0     0.706583     0.998534     0.066250  Biso 1.000000     O
    O   1.0     0.360592     0.332420     0.012779  Biso 1.000000     O
    O   1.0     0.360596     0.832424     0.012776  Biso 1.000000     O
    O   1.0     0.860588     0.332420     0.012778  Biso 1.000000     O
    O   1.0     0.860591     0.832424     0.012777  Biso 1.000000     O
    O   1.0     0.317791     0.407360     0.056255  Biso 1.000000     O
    O   1.0     0.317795     0.907365     0.056254  Biso 1.000000     O
    O   1.0     0.817787     0.407360     0.056254  Biso 1.000000     O
    O   1.0     0.817789     0.907364     0.056254  Biso 1.000000     O
   Cd   1.0     0.230070     0.404650     0.973887  Biso 1.000000    Cd
   Cd   1.0     0.230073     0.904654     0.973888  Biso 1.000000    Cd
   Cd   1.0     0.730065     0.404649     0.973887  Biso 1.000000    Cd
   Cd   1.0     0.730069     0.904653     0.973886  Biso 1.000000    Cd
   Cd   1.0     0.325351     0.095314     0.526082  Biso 1.000000    Cd
   Cd   1.0     0.325355     0.595318     0.526083  Biso 1.000000    Cd
   Cd   1.0     0.825346     0.095313     0.526084  Biso 1.000000    Cd
   Cd   1.0     0.825351     0.595318     0.526082  Biso 1.000000    Cd
   Cd   1.0     0.269955     0.095372     0.026105  Biso 1.000000    Cd
   Cd   1.0     0.269959     0.595376     0.026104  Biso 1.000000    Cd
   Cd   1.0     0.769950     0.095371     0.026104  Biso 1.000000    Cd
   Cd   1.0     0.769954     0.595375     0.026104  Biso 1.000000    Cd
   Cd   1.0     0.174664     0.404707     0.473908  Biso 1.000000    Cd
   Cd   1.0     0.174670     0.904711     0.473905  Biso 1.000000    Cd
   Cd   1.0     0.674661     0.404707     0.473907  Biso 1.000000    Cd
   Cd   1.0     0.674665     0.904710     0.473906  Biso 1.000000    Cd
   Cd   1.0     0.250015     0.250012     0.000002  Biso 1.000000    Cd
   Cd   1.0     0.250013     0.750011     0.999985  Biso 1.000000    Cd
   Cd   1.0     0.750011     0.250011     0.000002  Biso 1.000000    Cd
   Cd   1.0     0.750014     0.750016    -0.000001  Biso 1.000000    Cd
   Cd   1.0     0.000007     0.250010     0.499996  Biso 1.000000    Cd
   Cd   1.0     0.000000     0.750015     0.499989  Biso 1.000000    Cd
   Cd   1.0     0.500006     0.250011     0.499994  Biso 1.000000    Cd
   Cd   1.0     0.500010     0.750014     0.499992  Biso 1.000000    Cd
