#======================================================================

# CRYSTAL DATA

#----------------------------------------------------------------------

data_VESTA_phase_1


_pd_phase_name                         MOF
_cell_length_a                         16.17100
_cell_length_b                         16.18600
_cell_length_c                         26.82300
_cell_angle_alpha                      84.50600
_cell_angle_beta                       84.47500
_cell_angle_gamma                      84.44100
_symmetry_space_group_name_H-M         "P 1"
_symmetry_Int_Tables_number            1

loop_
_symmetry_equiv_pos_as_xyz
   "x, y, z"

loop_
   _atom_site_label
   _atom_site_occupancy
   _atom_site_fract_x
   _atom_site_fract_y
   _atom_site_fract_z
   _atom_site_adp_type
   _atom_site_B_iso_or_equiv
   _atom_site_type_symbol
    H   1.0     0.666931     0.561797     0.386074  Biso 1.000000     H
    H   1.0     0.669422     0.695578     0.332997  Biso 1.000000     H
    H   1.0     0.936980     0.681662     0.335116  Biso 1.000000     H
    H   1.0     0.932554     0.545954     0.387744  Biso 1.000000     H
    H   1.0     0.697213     0.838492     0.299361  Biso 1.000000     H
    H   1.0     0.714241     0.756344     0.258179  Biso 1.000000     H
    H   1.0     0.649086     0.926983     0.221525  Biso 1.000000     H
    H   1.0     0.720957     0.940513     0.166870  Biso 1.000000     H
    H   1.0     0.620808     0.691327     0.159630  Biso 1.000000     H
    H   1.0     0.504386     0.682479     0.105657  Biso 1.000000     H
    H   1.0     0.468884     0.948733     0.087233  Biso 1.000000     H
    H   1.0     0.583168     0.959860     0.140980  Biso 1.000000     H
    H   1.0     0.856681     0.916160     0.276742  Biso 1.000000     H
    H   1.0     0.837854     0.981870     0.220524  Biso 1.000000     H
    H   1.0     0.632371     0.084012     0.322848  Biso 1.000000     H
    H   1.0     0.657333     0.192482     0.378934  Biso 1.000000     H
    H   1.0     0.921072     0.136499     0.350894  Biso 1.000000     H
    H   1.0     0.898204     0.029125     0.295041  Biso 1.000000     H
    H   1.0     0.899615     0.804501     0.220860  Biso 1.000000     H
    H   1.0     0.825541     0.767977     0.184528  Biso 1.000000     H
    H   1.0     0.969106     0.732575     0.158060  Biso 1.000000     H
    H   1.0     0.102266     0.710316     0.104523  Biso 1.000000     H
    H   1.0     0.072588     0.962375     0.039064  Biso 1.000000     H
    H   1.0     0.937590     0.986066     0.091483  Biso 1.000000     H
    H   1.0     0.015631     0.414215     0.508670  Biso 1.000000     H
    H   1.0     0.167983     0.409915     0.514471  Biso 1.000000     H
    H   1.0     0.195000     0.188593     0.433105  Biso 1.000000     H
    H   1.0     0.040647     0.203951     0.430157  Biso 1.000000     H
    H   1.0     0.318478     0.235985     0.459076  Biso 1.000000     H
    H   1.0     0.297516     0.398024     0.512853  Biso 1.000000     H
    H   1.0     0.448773     0.221442     0.459763  Biso 1.000000     H
    H   1.0     0.602016     0.221735     0.462782  Biso 1.000000     H
    H   1.0     0.575235     0.435522     0.537655  Biso 1.000000     H
    H   1.0     0.419143     0.446992     0.536729  Biso 1.000000     H
    H   1.0     0.561840     0.670598     0.887459  Biso 1.000000     H
    H   1.0     0.696293     0.672186     0.834718  Biso 1.000000     H
    H   1.0     0.679860     0.940210     0.832743  Biso 1.000000     H
    H   1.0     0.543555     0.936618     0.884977  Biso 1.000000     H
    H   1.0     0.838616     0.699799     0.799609  Biso 1.000000     H
    H   1.0     0.755595     0.715464     0.758994  Biso 1.000000     H
    H   1.0     0.925574     0.650442     0.721369  Biso 1.000000     H
    H   1.0     0.938349     0.721630     0.666388  Biso 1.000000     H
    H   1.0     0.689247     0.622629     0.659074  Biso 1.000000     H
    H   1.0     0.680688     0.505779     0.605383  Biso 1.000000     H
    H   1.0     0.947212     0.467769     0.589192  Biso 1.000000     H
    H   1.0     0.957984     0.582509     0.642640  Biso 1.000000     H
    H   1.0     0.915790     0.858684     0.775441  Biso 1.000000     H
    H   1.0     0.980494     0.839423     0.718873  Biso 1.000000     H
    H   1.0     0.085309     0.635357     0.820774  Biso 1.000000     H
    H   1.0     0.193389     0.660963     0.876958  Biso 1.000000     H
    H   1.0     0.134888     0.924229     0.849735  Biso 1.000000     H
    H   1.0     0.027824     0.900708     0.793833  Biso 1.000000     H
    H   1.0     0.802428     0.900482     0.720354  Biso 1.000000     H
    H   1.0     0.765645     0.825753     0.684619  Biso 1.000000     H
    H   1.0     0.729678     0.969096     0.657518  Biso 1.000000     H
    H   1.0     0.707350     0.102545     0.604367  Biso 1.000000     H
    H   1.0     0.960014     0.074104     0.539325  Biso 1.000000     H
    H   1.0     0.983836     0.938844     0.591423  Biso 1.000000     H
    H   1.0     0.411553     0.018212     0.010140  Biso 1.000000     H
    H   1.0     0.407863     0.170506     0.015860  Biso 1.000000     H
    H   1.0     0.188827     0.198519     0.932342  Biso 1.000000     H
    H   1.0     0.203359     0.044305     0.929655  Biso 1.000000     H
    H   1.0     0.236140     0.321467     0.958562  Biso 1.000000     H
    H   1.0     0.398185     0.300825     0.012397  Biso 1.000000     H
    H   1.0     0.224263     0.451547     0.956060  Biso 1.000000     H
    H   1.0     0.223815     0.604744     0.958850  Biso 1.000000     H
    H   1.0     0.433323     0.579152     0.037672  Biso 1.000000     H
    H   1.0     0.445278     0.423152     0.037356  Biso 1.000000     H
    H   1.0     0.438085     0.329381     0.112577  Biso 1.000000     H
    H   1.0     0.303594     0.327806     0.165276  Biso 1.000000     H
    H   1.0     0.320061     0.059776     0.167303  Biso 1.000000     H
    H   1.0     0.456398     0.063356     0.115107  Biso 1.000000     H
    H   1.0     0.161261     0.300218     0.200425  Biso 1.000000     H
    H   1.0     0.244333     0.284518     0.241004  Biso 1.000000     H
    H   1.0     0.074372     0.349548     0.278676  Biso 1.000000     H
    H   1.0     0.061635     0.278359     0.333659  Biso 1.000000     H
    H   1.0     0.310741     0.377345     0.340948  Biso 1.000000     H
    H   1.0     0.319316     0.494191     0.394639  Biso 1.000000     H
    H   1.0     0.052793     0.532221     0.410840  Biso 1.000000     H
    H   1.0     0.042005     0.417485     0.357394  Biso 1.000000     H
    H   1.0     0.084126     0.141281     0.224622  Biso 1.000000     H
    H   1.0     0.019441     0.160575     0.281191  Biso 1.000000     H
    H   1.0     0.914621     0.364600     0.179267  Biso 1.000000     H
    H   1.0     0.806565     0.338985     0.123068  Biso 1.000000     H
    H   1.0     0.865097     0.075722     0.150281  Biso 1.000000     H
    H   1.0     0.972138     0.099251     0.206197  Biso 1.000000     H
    H   1.0     0.197532     0.099516     0.279662  Biso 1.000000     H
    H   1.0     0.234338     0.174251     0.315383  Biso 1.000000     H
    H   1.0     0.270324     0.030904     0.342497  Biso 1.000000     H
    H   1.0     0.292665     0.897451     0.395645  Biso 1.000000     H
    H   1.0     0.040015     0.925891     0.460710  Biso 1.000000     H
    H   1.0     0.016181     0.061153     0.408616  Biso 1.000000     H
    H   1.0     0.588350     0.981741     0.989908  Biso 1.000000     H
    H   1.0     0.592073     0.829446     0.984197  Biso 1.000000     H
    H   1.0     0.811167     0.801502     0.067661  Biso 1.000000     H
    H   1.0     0.796598     0.955721     0.070343  Biso 1.000000     H
    H   1.0     0.763854     0.678528     0.041465  Biso 1.000000     H
    H   1.0     0.601805     0.699148     0.987633  Biso 1.000000     H
    H   1.0     0.775738     0.548435     0.043968  Biso 1.000000     H
    H   1.0     0.776186     0.395237     0.041180  Biso 1.000000     H
    H   1.0     0.566673     0.420824     0.962364  Biso 1.000000     H
    H   1.0     0.554718     0.576824     0.962676  Biso 1.000000     H
    H   1.0     0.333070     0.438173     0.613930  Biso 1.000000     H
    H   1.0     0.330543     0.304392     0.667004  Biso 1.000000     H
    H   1.0     0.062986     0.318353     0.664859  Biso 1.000000     H
    H   1.0     0.067450     0.454059     0.612230  Biso 1.000000     H
    H   1.0     0.302724     0.161512     0.700643  Biso 1.000000     H
    H   1.0     0.285727     0.243677     0.741814  Biso 1.000000     H
    H   1.0     0.350882     0.073063     0.778494  Biso 1.000000     H
    H   1.0     0.279020     0.059565     0.833157  Biso 1.000000     H
    H   1.0     0.379219     0.308733     0.840366  Biso 1.000000     H
    H   1.0     0.495614     0.317553     0.894363  Biso 1.000000     H
    H   1.0     0.531011     0.051294     0.912822  Biso 1.000000     H
    H   1.0     0.416750     0.040195     0.859056  Biso 1.000000     H
    H   1.0     0.143286     0.083834     0.723294  Biso 1.000000     H
    H   1.0     0.162119     0.018161     0.779524  Biso 1.000000     H
    H   1.0     0.367605     0.916020     0.677187  Biso 1.000000     H
    H   1.0     0.342656     0.807568     0.621086  Biso 1.000000     H
    H   1.0     0.078913     0.863489     0.649149  Biso 1.000000     H
    H   1.0     0.101769     0.970853     0.705013  Biso 1.000000     H
    H   1.0     0.100346     0.195526     0.779159  Biso 1.000000     H
    H   1.0     0.174418     0.232064     0.815488  Biso 1.000000     H
    H   1.0     0.030843     0.267438     0.841965  Biso 1.000000     H
    H   1.0     0.897680     0.289666     0.895503  Biso 1.000000     H
    H   1.0     0.927366     0.037585     0.960923  Biso 1.000000     H
    H   1.0     0.062370     0.013922     0.908502  Biso 1.000000     H
    H   1.0     0.984392     0.585781     0.491349  Biso 1.000000     H
    H   1.0     0.832040     0.590072     0.485551  Biso 1.000000     H
    H   1.0     0.805013     0.811382     0.566929  Biso 1.000000     H
    H   1.0     0.959368     0.796034     0.569872  Biso 1.000000     H
    H   1.0     0.681540     0.763989     0.540959  Biso 1.000000     H
    H   1.0     0.702502     0.601972     0.487160  Biso 1.000000     H
    H   1.0     0.551251     0.778551     0.540259  Biso 1.000000     H
    H   1.0     0.398006     0.778261     0.537246  Biso 1.000000     H
    H   1.0     0.424777     0.564476     0.462371  Biso 1.000000     H
    H   1.0     0.580871     0.553003     0.463293  Biso 1.000000     H
    C   1.0     0.799021     0.464356     0.423399  Biso 1.000000     C
    C   1.0     0.799497     0.545031     0.390735  Biso 1.000000     C
    C   1.0     0.726053     0.588219     0.374906  Biso 1.000000     C
    C   1.0     0.727564     0.663479     0.344744  Biso 1.000000     C
    C   1.0     0.804055     0.696790     0.330209  Biso 1.000000     C
    C   1.0     0.878093     0.654749     0.346400  Biso 1.000000     C
    C   1.0     0.875390     0.579669     0.375785  Biso 1.000000     C
    C   1.0     0.743614     0.805521     0.273690  Biso 1.000000     C
    C   1.0     0.774850     0.867636     0.230481  Biso 1.000000     C
    C   1.0     0.701292     0.896446     0.198630  Biso 1.000000     C
    C   1.0     0.609479     0.825369     0.153445  Biso 1.000000     C
    C   1.0     0.586367     0.747367     0.143745  Biso 1.000000     C
    C   1.0     0.521916     0.742672     0.113898  Biso 1.000000     C
    C   1.0     0.479310     0.815440     0.092845  Biso 1.000000     C
    C   1.0     0.501710     0.892592     0.103982  Biso 1.000000     C
    C   1.0     0.565952     0.898739     0.134254  Biso 1.000000     C
    C   1.0     0.415877     0.810438     0.056437  Biso 1.000000     C
    C   1.0     0.809028     0.941373     0.251288  Biso 1.000000     C
    C   1.0     0.763059     0.048561     0.306279  Biso 1.000000     C
    C   1.0     0.695397     0.095835     0.329579  Biso 1.000000     C
    C   1.0     0.709521     0.155789     0.360629  Biso 1.000000     C
    C   1.0     0.790988     0.170647     0.369208  Biso 1.000000     C
    C   1.0     0.857849     0.124712     0.344655  Biso 1.000000     C
    C   1.0     0.844792     0.064058     0.313293  Biso 1.000000     C
    C   1.0     0.805056     0.231321     0.405618  Biso 1.000000     C
    C   1.0     0.846748     0.823701     0.198193  Biso 1.000000     C
    C   1.0     0.945192     0.861413     0.128339  Biso 1.000000     C
    C   1.0     0.990867     0.783216     0.131946  Biso 1.000000     C
    C   1.0     0.065788     0.770571     0.101927  Biso 1.000000     C
    C   1.0     0.096218     0.834784     0.068636  Biso 1.000000     C
    C   1.0     0.048880     0.912371     0.064959  Biso 1.000000     C
    C   1.0     0.973946     0.925717     0.094090  Biso 1.000000     C
    C   1.0     0.178321     0.822912     0.037940  Biso 1.000000     C
    C   1.0     0.058375     0.366041     0.492167  Biso 1.000000     C
    C   1.0     0.143436     0.362604     0.495342  Biso 1.000000     C
    C   1.0     0.195869     0.298291     0.474109  Biso 1.000000     C
    C   1.0     0.157829     0.239995     0.450259  Biso 1.000000     C
    C   1.0     0.072026     0.247782     0.448428  Biso 1.000000     C
    C   1.0     0.285864     0.290189     0.475999  Biso 1.000000     C
    C   1.0     0.329794     0.343433     0.496281  Biso 1.000000     C
    C   1.0     0.419889     0.335530     0.497734  Biso 1.000000     C
    C   1.0     0.473232     0.270795     0.477319  Biso 1.000000     C
    C   1.0     0.558551     0.269805     0.478925  Biso 1.000000     C
    C   1.0     0.543779     0.390160     0.520625  Biso 1.000000     C
    C   1.0     0.457643     0.395718     0.520217  Biso 1.000000     C
    C   1.0     0.462958     0.803295     0.922459  Biso 1.000000     C
    C   1.0     0.543883     0.803441     0.889995  Biso 1.000000     C
    C   1.0     0.587904     0.729590     0.875436  Biso 1.000000     C
    C   1.0     0.663477     0.730588     0.845495  Biso 1.000000     C
    C   1.0     0.696198     0.806977     0.829918  Biso 1.000000     C
    C   1.0     0.653349     0.881424     0.844856  Biso 1.000000     C
    C   1.0     0.577950     0.879195     0.874036  Biso 1.000000     C
    C   1.0     0.805006     0.745468     0.773870  Biso 1.000000     C
    C   1.0     0.866312     0.776180     0.730073  Biso 1.000000     C
    C   1.0     0.894659     0.702310     0.698457  Biso 1.000000     C
    C   1.0     0.823372     0.610076     0.653913  Biso 1.000000     C
    C   1.0     0.745363     0.587550     0.643732  Biso 1.000000     C
    C   1.0     0.740830     0.522893     0.614068  Biso 1.000000     C
    C   1.0     0.813765     0.479545     0.593691  Biso 1.000000     C
    C   1.0     0.890928     0.501314     0.605330  Biso 1.000000     C
    C   1.0     0.896878     0.565794     0.635429  Biso 1.000000     C
    C   1.0     0.808809     0.416078     0.557368  Biso 1.000000     C
    C   1.0     0.940587     0.810823     0.750044  Biso 1.000000     C
    C   1.0     0.048460     0.765730     0.804723  Biso 1.000000     C
    C   1.0     0.096471     0.698414     0.827735  Biso 1.000000     C
    C   1.0     0.156218     0.712911     0.858836  Biso 1.000000     C
    C   1.0     0.170190     0.794416     0.867744  Biso 1.000000     C
    C   1.0     0.123746     0.860957     0.843323  Biso 1.000000     C
    C   1.0     0.063244     0.847524     0.811919  Biso 1.000000     C
    C   1.0     0.230363     0.808680     0.904437  Biso 1.000000     C
    C   1.0     0.821538     0.847439     0.697840  Biso 1.000000     C
    C   1.0     0.858797     0.945778     0.627924  Biso 1.000000     C
    C   1.0     0.780424     0.991196     0.631572  Biso 1.000000     C
    C   1.0     0.767740     0.066240     0.601782  Biso 1.000000     C
    C   1.0     0.832094     0.096997     0.568685  Biso 1.000000     C
    C   1.0     0.909912     0.050022     0.565027  Biso 1.000000     C
    C   1.0     0.923305     0.974956     0.593948  Biso 1.000000     C
    C   1.0     0.819928     0.179143     0.538226  Biso 1.000000     C
    C   1.0     0.364033     0.061157     0.993183  Biso 1.000000     C
    C   1.0     0.361008     0.146166     0.996243  Biso 1.000000     C
    C   1.0     0.297662     0.198871     0.974233  Biso 1.000000     C
    C   1.0     0.239596     0.161130     0.950005  Biso 1.000000     C
    C   1.0     0.246927     0.075390     0.948320  Biso 1.000000     C
    C   1.0     0.290217     0.288874     0.975643  Biso 1.000000     C
    C   1.0     0.343734     0.332968     0.995589  Biso 1.000000     C
    C   1.0     0.335948     0.423130     0.996439  Biso 1.000000     C
    C   1.0     0.272383     0.476212     0.974613  Biso 1.000000     C
    C   1.0     0.271050     0.561530     0.976001  Biso 1.000000     C
    C   1.0     0.389028     0.547414     0.019904  Biso 1.000000     C
    C   1.0     0.394807     0.461286     0.019812  Biso 1.000000     C
    C   1.0     0.537001     0.196675     0.077607  Biso 1.000000     C
    C   1.0     0.456066     0.196534     0.110067  Biso 1.000000     C
    C   1.0     0.412020     0.270390     0.124601  Biso 1.000000     C
    C   1.0     0.336425     0.269398     0.154520  Biso 1.000000     C
    C   1.0     0.303696     0.193014     0.170099  Biso 1.000000     C
    C   1.0     0.346570     0.118562     0.155187  Biso 1.000000     C
    C   1.0     0.421989     0.120785     0.126026  Biso 1.000000     C
    C   1.0     0.194894     0.254532     0.226143  Biso 1.000000     C
    C   1.0     0.133629     0.223812     0.269958  Biso 1.000000     C
    C   1.0     0.105304     0.297680     0.301580  Biso 1.000000     C
    C   1.0     0.176616     0.389912     0.346111  Biso 1.000000     C
    C   1.0     0.254628     0.412430     0.356291  Biso 1.000000     C
    C   1.0     0.259170     0.477083     0.385957  Biso 1.000000     C
    C   1.0     0.186241     0.520443     0.406332  Biso 1.000000     C
    C   1.0     0.109074     0.498674     0.394700  Biso 1.000000     C
    C   1.0     0.103115     0.434196     0.364601  Biso 1.000000     C
    C   1.0     0.191205     0.583911     0.442654  Biso 1.000000     C
    C   1.0     0.059339     0.189158     0.250010  Biso 1.000000     C
    C   1.0     0.951479     0.234228     0.195316  Biso 1.000000     C
    C   1.0     0.903470     0.301542     0.172301  Biso 1.000000     C
    C   1.0     0.843738     0.287041     0.141191  Biso 1.000000     C
    C   1.0     0.829775     0.205535     0.132281  Biso 1.000000     C
    C   1.0     0.876226     0.138996     0.156698  Biso 1.000000     C
    C   1.0     0.936714     0.152433     0.188111  Biso 1.000000     C
    C   1.0     0.769613     0.191278     0.095580  Biso 1.000000     C
    C   1.0     0.178435     0.152558     0.302179  Biso 1.000000     C
    C   1.0     0.141211     0.054217     0.372103  Biso 1.000000     C
    C   1.0     0.219585     0.008801     0.368447  Biso 1.000000     C
    C   1.0     0.232276     0.933757     0.398236  Biso 1.000000     C
    C   1.0     0.167926     0.902997     0.431335  Biso 1.000000     C
    C   1.0     0.090111     0.949975     0.435004  Biso 1.000000     C
    C   1.0     0.076711     0.025040     0.406085  Biso 1.000000     C
    C   1.0     0.180095     0.820851     0.461791  Biso 1.000000     C
    C   1.0     0.635895     0.938813     0.006853  Biso 1.000000     C
    C   1.0     0.638935     0.853803     0.003799  Biso 1.000000     C
    C   1.0     0.702309     0.801116     0.025794  Biso 1.000000     C
    C   1.0     0.760378     0.838877     0.050009  Biso 1.000000     C
    C   1.0     0.753031     0.924619     0.051688  Biso 1.000000     C
    C   1.0     0.709771     0.711112     0.024386  Biso 1.000000     C
    C   1.0     0.656258     0.667010     0.004441  Biso 1.000000     C
    C   1.0     0.664052     0.576849     0.003589  Biso 1.000000     C
    C   1.0     0.727615     0.523768     0.025418  Biso 1.000000     C
    C   1.0     0.728951     0.438450     0.024029  Biso 1.000000     C
    C   1.0     0.610970     0.452563     0.980129  Biso 1.000000     C
    C   1.0     0.605188     0.538691     0.980222  Biso 1.000000     C
    C   1.0     0.200995     0.535655     0.576614  Biso 1.000000     C
    C   1.0     0.200505     0.454965     0.609260  Biso 1.000000     C
    C   1.0     0.273940     0.411763     0.625093  Biso 1.000000     C
    C   1.0     0.272409     0.336504     0.655253  Biso 1.000000     C
    C   1.0     0.195908     0.303211     0.669787  Biso 1.000000     C
    C   1.0     0.121881     0.345257     0.653583  Biso 1.000000     C
    C   1.0     0.124604     0.420336     0.624199  Biso 1.000000     C
    C   1.0     0.256338     0.194498     0.726317  Biso 1.000000     C
    C   1.0     0.225115     0.132401     0.769539  Biso 1.000000     C
    C   1.0     0.298682     0.103615     0.801386  Biso 1.000000     C
    C   1.0     0.390493     0.174690     0.846570  Biso 1.000000     C
    C   1.0     0.413629     0.252685     0.856267  Biso 1.000000     C
    C   1.0     0.478067     0.257364     0.886126  Biso 1.000000     C
    C   1.0     0.520639     0.184587     0.907195  Biso 1.000000     C
    C   1.0     0.498214     0.107442     0.896062  Biso 1.000000     C
    C   1.0     0.433983     0.101311     0.865779  Biso 1.000000     C
    C   1.0     0.584074     0.189569     0.943603  Biso 1.000000     C
    C   1.0     0.190942     0.058642     0.748751  Biso 1.000000     C
    C   1.0     0.236915     0.951445     0.693765  Biso 1.000000     C
    C   1.0     0.304581     0.904189     0.670457  Biso 1.000000     C
    C   1.0     0.290465     0.844246     0.639399  Biso 1.000000     C
    C   1.0     0.209001     0.829375     0.630821  Biso 1.000000     C
    C   1.0     0.142135     0.875288     0.655385  Biso 1.000000     C
    C   1.0     0.155185     0.935936     0.686753  Biso 1.000000     C
    C   1.0     0.194945     0.768717     0.594397  Biso 1.000000     C
    C   1.0     0.153217     0.176335     0.801825  Biso 1.000000     C
    C   1.0     0.054769     0.138593     0.871671  Biso 1.000000     C
    C   1.0     0.009086     0.216785     0.868072  Biso 1.000000     C
    C   1.0     0.934164     0.229413     0.898091  Biso 1.000000     C
    C   1.0     0.903738     0.165187     0.931374  Biso 1.000000     C
    C   1.0     0.951076     0.087600     0.935038  Biso 1.000000     C
    C   1.0     0.026012     0.074271     0.905905  Biso 1.000000     C
    C   1.0     0.821645     0.177062     0.962081  Biso 1.000000     C
    C   1.0     0.941646     0.633949     0.507856  Biso 1.000000     C
    C   1.0     0.856585     0.637386     0.504679  Biso 1.000000     C
    C   1.0     0.804149     0.701690     0.525919  Biso 1.000000     C
    C   1.0     0.842187     0.759988     0.549769  Biso 1.000000     C
    C   1.0     0.927991     0.752202     0.551601  Biso 1.000000     C
    C   1.0     0.714155     0.709793     0.524029  Biso 1.000000     C
    C   1.0     0.670226     0.656560     0.503737  Biso 1.000000     C
    C   1.0     0.580129     0.664458     0.502294  Biso 1.000000     C
    C   1.0     0.526790     0.729203     0.522701  Biso 1.000000     C
    C   1.0     0.441469     0.730186     0.521106  Biso 1.000000     C
    C   1.0     0.456235     0.609832     0.479405  Biso 1.000000     C
    C   1.0     0.542373     0.604281     0.479802  Biso 1.000000     C
    N   1.0     0.593950     0.328914     0.499780  Biso 1.000000     N
    N   1.0     0.022724     0.309927     0.469008  Biso 1.000000     N
    N   1.0     0.328750     0.597260     0.997924  Biso 1.000000     N
    N   1.0     0.308327     0.025842     0.969482  Biso 1.000000     N
    N   1.0     0.671245     0.402718     0.002113  Biso 1.000000     N
    N   1.0     0.691604     0.974147     0.030541  Biso 1.000000     N
    N   1.0     0.406068     0.671091     0.500240  Biso 1.000000     N
    N   1.0     0.977296     0.690067     0.531012  Biso 1.000000     N
    O   1.0     0.729562     0.441628     0.443762  Biso 1.000000     O
    O   1.0     0.870726     0.425361     0.428968  Biso 1.000000     O
    O   1.0     0.813292     0.769348     0.300147  Biso 1.000000     O
    O   1.0     0.676694     0.821961     0.181092  Biso 1.000000     O
    O   1.0     0.398969     0.737471     0.048446  Biso 1.000000     O
    O   1.0     0.385086     0.878322     0.034816  Biso 1.000000     O
    O   1.0     0.742373     0.988419     0.278079  Biso 1.000000     O
    O   1.0     0.879471     0.247115     0.410098  Biso 1.000000     O
    O   1.0     0.739773     0.261976     0.430663  Biso 1.000000     O
    O   1.0     0.871624     0.881352     0.156557  Biso 1.000000     O
    O   1.0     0.215374     0.749886     0.037374  Biso 1.000000     O
    O   1.0     0.204964     0.888832     0.014447  Biso 1.000000     O
    O   1.0     0.440732     0.733863     0.943126  Biso 1.000000     O
    O   1.0     0.423333     0.874746     0.927585  Biso 1.000000     O
    O   1.0     0.768965     0.815650     0.799911  Biso 1.000000     O
    O   1.0     0.819872     0.677397     0.681419  Biso 1.000000     O
    O   1.0     0.735700     0.399055     0.549589  Biso 1.000000     O
    O   1.0     0.876665     0.385466     0.535589  Biso 1.000000     O
    O   1.0     0.988339     0.744575     0.776664  Biso 1.000000     O
    O   1.0     0.246001     0.882998     0.909105  Biso 1.000000     O
    O   1.0     0.260767     0.743379     0.929536  Biso 1.000000     O
    O   1.0     0.878662     0.872041     0.655873  Biso 1.000000     O
    O   1.0     0.746491     0.215480     0.537747  Biso 1.000000     O
    O   1.0     0.885617     0.206538     0.514889  Biso 1.000000     O
    O   1.0     0.559258     0.266100     0.056952  Biso 1.000000     O
    O   1.0     0.576606     0.125213     0.072470  Biso 1.000000     O
    O   1.0     0.230890     0.184360     0.200077  Biso 1.000000     O
    O   1.0     0.180106     0.322595     0.318600  Biso 1.000000     O
    O   1.0     0.264315     0.600927     0.450436  Biso 1.000000     O
    O   1.0     0.123351     0.614531     0.464431  Biso 1.000000     O
    O   1.0     0.011583     0.255394     0.223384  Biso 1.000000     O
    O   1.0     0.753956     0.116969     0.090909  Biso 1.000000     O
    O   1.0     0.739236     0.256589     0.070478  Biso 1.000000     O
    O   1.0     0.121339     0.127955     0.344158  Biso 1.000000     O
    O   1.0     0.253529     0.784504     0.462258  Biso 1.000000     O
    O   1.0     0.114409     0.793467     0.485139  Biso 1.000000     O
    O   1.0     0.270458     0.558394     0.556264  Biso 1.000000     O
    O   1.0     0.129293     0.574656     0.571048  Biso 1.000000     O
    O   1.0     0.186654     0.230672     0.699865  Biso 1.000000     O
    O   1.0     0.323294     0.178108     0.818909  Biso 1.000000     O
    O   1.0     0.600983     0.262528     0.951613  Biso 1.000000     O
    O   1.0     0.614875     0.121673     0.965206  Biso 1.000000     O
    O   1.0     0.257597     0.011583     0.721971  Biso 1.000000     O
    O   1.0     0.120540     0.752877     0.589932  Biso 1.000000     O
    O   1.0     0.260233     0.738128     0.569326  Biso 1.000000     O
    O   1.0     0.128353     0.118678     0.843461  Biso 1.000000     O
    O   1.0     0.784611     0.250099     0.962644  Biso 1.000000     O
    O   1.0     0.794997     0.111154     0.985584  Biso 1.000000     O
   Zn   1.0     0.722168     0.327031     0.493419  Biso 1.000000    Zn
   Zn   1.0     0.895491     0.315602     0.470902  Biso 1.000000    Zn
   Zn   1.0     0.326663     0.725548     0.991861  Biso 1.000000    Zn
   Zn   1.0     0.313682     0.898814     0.970642  Biso 1.000000    Zn
   Zn   1.0     0.673346     0.274435     0.008167  Biso 1.000000    Zn
   Zn   1.0     0.686203     0.101178     0.029379  Biso 1.000000    Zn
   Zn   1.0     0.277852     0.672973     0.506602  Biso 1.000000    Zn
   Zn   1.0     0.104529     0.684401     0.529116  Biso 1.000000    Zn
