#======================================================================

# CRYSTAL DATA

#----------------------------------------------------------------------

data_VESTA_phase_1


_pd_phase_name                         MOF
_cell_length_a                         15.88500
_cell_length_b                         18.33800
_cell_length_c                         19.60200
_cell_angle_alpha                      92.92600
_cell_angle_beta                       114.07400
_cell_angle_gamma                      82.71300
_symmetry_space_group_name_H-M         "P 1"
_symmetry_Int_Tables_number            1

loop_
_symmetry_equiv_pos_as_xyz
   "x, y, z"

loop_
   _atom_site_label
   _atom_site_occupancy
   _atom_site_fract_x
   _atom_site_fract_y
   _atom_site_fract_z
   _atom_site_adp_type
   _atom_site_B_iso_or_equiv
   _atom_site_type_symbol
    H   1.0     0.027854     0.116609     0.120189  Biso 1.000000     H
    H   1.0     0.027858     0.116608     0.620175  Biso 1.000000     H
    H   1.0     0.027856     0.616597     0.120190  Biso 1.000000     H
    H   1.0     0.027860     0.616596     0.620176  Biso 1.000000     H
    H   1.0     0.527847     0.116610     0.120190  Biso 1.000000     H
    H   1.0     0.527851     0.116609     0.620176  Biso 1.000000     H
    H   1.0     0.527849     0.616597     0.120190  Biso 1.000000     H
    H   1.0     0.527853     0.616596     0.620176  Biso 1.000000     H
    H   1.0     0.464789     0.047241     0.062752  Biso 1.000000     H
    H   1.0     0.464792     0.047240     0.562737  Biso 1.000000     H
    H   1.0     0.464791     0.547228     0.062752  Biso 1.000000     H
    H   1.0     0.464794     0.547228     0.562737  Biso 1.000000     H
    H   1.0     0.964778     0.047241     0.062750  Biso 1.000000     H
    H   1.0     0.964781     0.047240     0.562736  Biso 1.000000     H
    H   1.0     0.964780     0.547229     0.062750  Biso 1.000000     H
    H   1.0     0.964783     0.547228     0.562736  Biso 1.000000     H
    H   1.0     0.055534     0.042620     0.234178  Biso 1.000000     H
    H   1.0     0.055538     0.042618     0.734164  Biso 1.000000     H
    H   1.0     0.055535     0.542607     0.234178  Biso 1.000000     H
    H   1.0     0.055539     0.542605     0.734163  Biso 1.000000     H
    H   1.0     0.555533     0.042620     0.234179  Biso 1.000000     H
    H   1.0     0.555537     0.042618     0.734165  Biso 1.000000     H
    H   1.0     0.555534     0.542606     0.234179  Biso 1.000000     H
    H   1.0     0.555538     0.542604     0.734165  Biso 1.000000     H
    H   1.0     0.001565     0.470420     0.176149  Biso 1.000000     H
    H   1.0     0.001568     0.470418     0.676134  Biso 1.000000     H
    H   1.0     0.001567     0.970406     0.176149  Biso 1.000000     H
    H   1.0     0.001570     0.970405     0.676134  Biso 1.000000     H
    H   1.0     0.501565     0.470419     0.176151  Biso 1.000000     H
    H   1.0     0.501568     0.470417     0.676135  Biso 1.000000     H
    H   1.0     0.501567     0.970405     0.176151  Biso 1.000000     H
    H   1.0     0.501570     0.970404     0.676136  Biso 1.000000     H
    H   1.0     0.091433     0.383547     0.119705  Biso 1.000000     H
    H   1.0     0.091436     0.383546     0.619690  Biso 1.000000     H
    H   1.0     0.091434     0.883534     0.119705  Biso 1.000000     H
    H   1.0     0.091438     0.883533     0.619690  Biso 1.000000     H
    H   1.0     0.591428     0.383551     0.119701  Biso 1.000000     H
    H   1.0     0.591431     0.383549     0.619686  Biso 1.000000     H
    H   1.0     0.591429     0.883538     0.119700  Biso 1.000000     H
    H   1.0     0.591433     0.883537     0.619685  Biso 1.000000     H
    H   1.0     0.097020     0.453273     0.062694  Biso 1.000000     H
    H   1.0     0.097023     0.453271     0.562679  Biso 1.000000     H
    H   1.0     0.097022     0.953260     0.062694  Biso 1.000000     H
    H   1.0     0.097026     0.953259     0.562679  Biso 1.000000     H
    H   1.0     0.597017     0.453278     0.062692  Biso 1.000000     H
    H   1.0     0.597021     0.453276     0.562676  Biso 1.000000     H
    H   1.0     0.597020     0.953266     0.062692  Biso 1.000000     H
    H   1.0     0.597023     0.953264     0.562677  Biso 1.000000     H
    H   1.0     0.178451     0.456851     0.234127  Biso 1.000000     H
    H   1.0     0.178455     0.456849     0.734112  Biso 1.000000     H
    H   1.0     0.178453     0.956837     0.234127  Biso 1.000000     H
    H   1.0     0.178456     0.956835     0.734112  Biso 1.000000     H
    H   1.0     0.678450     0.456852     0.234124  Biso 1.000000     H
    H   1.0     0.678454     0.456850     0.734109  Biso 1.000000     H
    H   1.0     0.678452     0.956839     0.234124  Biso 1.000000     H
    H   1.0     0.678456     0.956837     0.734109  Biso 1.000000     H
    H   1.0     0.174339     0.029393     0.176505  Biso 1.000000     H
    H   1.0     0.174342     0.029391     0.676490  Biso 1.000000     H
    H   1.0     0.174340     0.529379     0.176504  Biso 1.000000     H
    H   1.0     0.174344     0.529378     0.676489  Biso 1.000000     H
    H   1.0     0.674334     0.029396     0.176503  Biso 1.000000     H
    H   1.0     0.674338     0.029395     0.676488  Biso 1.000000     H
    H   1.0     0.674336     0.529383     0.176503  Biso 1.000000     H
    H   1.0     0.674339     0.529381     0.676487  Biso 1.000000     H
    H   1.0     0.472221     0.383346     0.379806  Biso 1.000000     H
    H   1.0     0.472225     0.383346     0.879792  Biso 1.000000     H
    H   1.0     0.472223     0.883334     0.379807  Biso 1.000000     H
    H   1.0     0.472227     0.883333     0.879792  Biso 1.000000     H
    H   1.0     0.972214     0.383347     0.379807  Biso 1.000000     H
    H   1.0     0.972218     0.383346     0.879792  Biso 1.000000     H
    H   1.0     0.972216     0.883334     0.379807  Biso 1.000000     H
    H   1.0     0.972220     0.883333     0.879793  Biso 1.000000     H
    H   1.0     0.035292     0.452712     0.437251  Biso 1.000000     H
    H   1.0     0.035295     0.452711     0.937236  Biso 1.000000     H
    H   1.0     0.035294     0.952700     0.437250  Biso 1.000000     H
    H   1.0     0.035297     0.952699     0.937236  Biso 1.000000     H
    H   1.0     0.535281     0.452712     0.437249  Biso 1.000000     H
    H   1.0     0.535285     0.452712     0.937235  Biso 1.000000     H
    H   1.0     0.535284     0.952700     0.437249  Biso 1.000000     H
    H   1.0     0.535287     0.952699     0.937234  Biso 1.000000     H
    H   1.0     0.444544     0.457342     0.265822  Biso 1.000000     H
    H   1.0     0.444548     0.457340     0.765807  Biso 1.000000     H
    H   1.0     0.444545     0.957329     0.265821  Biso 1.000000     H
    H   1.0     0.444549     0.957327     0.765807  Biso 1.000000     H
    H   1.0     0.944543     0.457341     0.265823  Biso 1.000000     H
    H   1.0     0.944547     0.457340     0.765808  Biso 1.000000     H
    H   1.0     0.944545     0.957328     0.265823  Biso 1.000000     H
    H   1.0     0.944548     0.957326     0.765808  Biso 1.000000     H
    H   1.0     0.498513     0.029541     0.323854  Biso 1.000000     H
    H   1.0     0.498517     0.029539     0.823839  Biso 1.000000     H
    H   1.0     0.498515     0.529527     0.323855  Biso 1.000000     H
    H   1.0     0.498518     0.529526     0.823840  Biso 1.000000     H
    H   1.0     0.998513     0.029539     0.323856  Biso 1.000000     H
    H   1.0     0.998516     0.029538     0.823841  Biso 1.000000     H
    H   1.0     0.998515     0.529525     0.323857  Biso 1.000000     H
    H   1.0     0.998518     0.529524     0.823842  Biso 1.000000     H
    H   1.0     0.408646     0.116407     0.380304  Biso 1.000000     H
    H   1.0     0.408649     0.116405     0.880290  Biso 1.000000     H
    H   1.0     0.408647     0.616394     0.380304  Biso 1.000000     H
    H   1.0     0.408651     0.616392     0.880289  Biso 1.000000     H
    H   1.0     0.908641     0.116410     0.380300  Biso 1.000000     H
    H   1.0     0.908644     0.116409     0.880285  Biso 1.000000     H
    H   1.0     0.908642     0.616398     0.380299  Biso 1.000000     H
    H   1.0     0.908646     0.616396     0.880284  Biso 1.000000     H
    H   1.0     0.403055     0.046676     0.437309  Biso 1.000000     H
    H   1.0     0.403059     0.046675     0.937294  Biso 1.000000     H
    H   1.0     0.403057     0.546664     0.437309  Biso 1.000000     H
    H   1.0     0.403061     0.546662     0.937294  Biso 1.000000     H
    H   1.0     0.903052     0.046681     0.437307  Biso 1.000000     H
    H   1.0     0.903056     0.046679     0.937292  Biso 1.000000     H
    H   1.0     0.903055     0.546669     0.437307  Biso 1.000000     H
    H   1.0     0.903058     0.546667     0.937292  Biso 1.000000     H
    H   1.0     0.321627     0.043110     0.265876  Biso 1.000000     H
    H   1.0     0.321630     0.043109     0.765861  Biso 1.000000     H
    H   1.0     0.321629     0.543097     0.265876  Biso 1.000000     H
    H   1.0     0.321632     0.543096     0.765862  Biso 1.000000     H
    H   1.0     0.821626     0.043112     0.265874  Biso 1.000000     H
    H   1.0     0.821630     0.043110     0.765859  Biso 1.000000     H
    H   1.0     0.821628     0.543098     0.265874  Biso 1.000000     H
    H   1.0     0.821631     0.543097     0.765859  Biso 1.000000     H
    H   1.0     0.325739     0.470564     0.323494  Biso 1.000000     H
    H   1.0     0.325742     0.470563     0.823479  Biso 1.000000     H
    H   1.0     0.325740     0.970551     0.323493  Biso 1.000000     H
    H   1.0     0.325744     0.970549     0.823478  Biso 1.000000     H
    H   1.0     0.825734     0.470567     0.323492  Biso 1.000000     H
    H   1.0     0.825738     0.470566     0.823477  Biso 1.000000     H
    H   1.0     0.825736     0.970554     0.323491  Biso 1.000000     H
    H   1.0     0.825739     0.970552     0.823476  Biso 1.000000     H
    C   1.0     0.401022     0.105343     0.128735  Biso 1.000000     C
    C   1.0     0.401026     0.105343     0.628722  Biso 1.000000     C
    C   1.0     0.401023     0.605330     0.128735  Biso 1.000000     C
    C   1.0     0.401028     0.605330     0.628722  Biso 1.000000     C
    C   1.0     0.901011     0.105345     0.128733  Biso 1.000000     C
    C   1.0     0.901015     0.105345     0.628719  Biso 1.000000     C
    C   1.0     0.901012     0.605332     0.128732  Biso 1.000000     C
    C   1.0     0.901017     0.605332     0.628719  Biso 1.000000     C
    C   1.0     0.485836     0.072669     0.118470  Biso 1.000000     C
    C   1.0     0.485840     0.072668     0.618455  Biso 1.000000     C
    C   1.0     0.485838     0.572656     0.118470  Biso 1.000000     C
    C   1.0     0.485842     0.572655     0.618455  Biso 1.000000     C
    C   1.0     0.985825     0.072669     0.118468  Biso 1.000000     C
    C   1.0     0.985829     0.072668     0.618454  Biso 1.000000     C
    C   1.0     0.985827     0.572656     0.118468  Biso 1.000000     C
    C   1.0     0.985831     0.572655     0.618454  Biso 1.000000     C
    C   1.0     0.042979     0.015532     0.180141  Biso 1.000000     C
    C   1.0     0.042983     0.015531     0.680127  Biso 1.000000     C
    C   1.0     0.042981     0.515519     0.180141  Biso 1.000000     C
    C   1.0     0.042984     0.515518     0.680127  Biso 1.000000     C
    C   1.0     0.542977     0.015532     0.180142  Biso 1.000000     C
    C   1.0     0.542981     0.015531     0.680128  Biso 1.000000     C
    C   1.0     0.542979     0.515519     0.180142  Biso 1.000000     C
    C   1.0     0.542982     0.515518     0.680127  Biso 1.000000     C
    C   1.0     0.227016     0.394749     0.128599  Biso 1.000000     C
    C   1.0     0.227020     0.394748     0.628584  Biso 1.000000     C
    C   1.0     0.227018     0.894736     0.128599  Biso 1.000000     C
    C   1.0     0.227022     0.894736     0.628585  Biso 1.000000     C
    C   1.0     0.727012     0.394752     0.128596  Biso 1.000000     C
    C   1.0     0.727016     0.394751     0.628582  Biso 1.000000     C
    C   1.0     0.727014     0.894739     0.128596  Biso 1.000000     C
    C   1.0     0.727018     0.894738     0.628582  Biso 1.000000     C
    C   1.0     0.131868     0.427503     0.118295  Biso 1.000000     C
    C   1.0     0.131872     0.427501     0.618280  Biso 1.000000     C
    C   1.0     0.131870     0.927490     0.118295  Biso 1.000000     C
    C   1.0     0.131873     0.927488     0.618280  Biso 1.000000     C
    C   1.0     0.631865     0.427506     0.118292  Biso 1.000000     C
    C   1.0     0.631868     0.427504     0.618277  Biso 1.000000     C
    C   1.0     0.631866     0.927493     0.118292  Biso 1.000000     C
    C   1.0     0.631870     0.927492     0.618277  Biso 1.000000     C
    C   1.0     0.136780     0.484261     0.180191  Biso 1.000000     C
    C   1.0     0.136784     0.484260     0.680176  Biso 1.000000     C
    C   1.0     0.136782     0.984248     0.180191  Biso 1.000000     C
    C   1.0     0.136785     0.984246     0.680176  Biso 1.000000     C
    C   1.0     0.636778     0.484263     0.180189  Biso 1.000000     C
    C   1.0     0.636781     0.484261     0.680174  Biso 1.000000     C
    C   1.0     0.636779     0.984250     0.180189  Biso 1.000000     C
    C   1.0     0.636783     0.984249     0.680174  Biso 1.000000     C
    C   1.0     0.099061     0.394609     0.371268  Biso 1.000000     C
    C   1.0     0.099065     0.394608     0.871255  Biso 1.000000     C
    C   1.0     0.099063     0.894596     0.371269  Biso 1.000000     C
    C   1.0     0.099067     0.894596     0.871255  Biso 1.000000     C
    C   1.0     0.599050     0.394611     0.371266  Biso 1.000000     C
    C   1.0     0.599054     0.394610     0.871253  Biso 1.000000     C
    C   1.0     0.599052     0.894598     0.371266  Biso 1.000000     C
    C   1.0     0.599056     0.894598     0.871252  Biso 1.000000     C
    C   1.0     0.014245     0.427286     0.381532  Biso 1.000000     C
    C   1.0     0.014249     0.427286     0.881517  Biso 1.000000     C
    C   1.0     0.014247     0.927274     0.381532  Biso 1.000000     C
    C   1.0     0.014251     0.927273     0.881517  Biso 1.000000     C
    C   1.0     0.514235     0.427287     0.381530  Biso 1.000000     C
    C   1.0     0.514238     0.427286     0.881516  Biso 1.000000     C
    C   1.0     0.514237     0.927274     0.381530  Biso 1.000000     C
    C   1.0     0.514240     0.927273     0.881516  Biso 1.000000     C
    C   1.0     0.457099     0.484427     0.319860  Biso 1.000000     C
    C   1.0     0.457102     0.484426     0.819845  Biso 1.000000     C
    C   1.0     0.457100     0.984414     0.319859  Biso 1.000000     C
    C   1.0     0.457104     0.984413     0.819845  Biso 1.000000     C
    C   1.0     0.957097     0.484427     0.319861  Biso 1.000000     C
    C   1.0     0.957100     0.484426     0.819846  Biso 1.000000     C
    C   1.0     0.957098     0.984414     0.319860  Biso 1.000000     C
    C   1.0     0.957102     0.984412     0.819846  Biso 1.000000     C
    C   1.0     0.273061     0.105203     0.371407  Biso 1.000000     C
    C   1.0     0.273065     0.105202     0.871392  Biso 1.000000     C
    C   1.0     0.273063     0.605190     0.371407  Biso 1.000000     C
    C   1.0     0.273067     0.605189     0.871392  Biso 1.000000     C
    C   1.0     0.773057     0.105206     0.371404  Biso 1.000000     C
    C   1.0     0.773061     0.105204     0.871389  Biso 1.000000     C
    C   1.0     0.773059     0.605192     0.371404  Biso 1.000000     C
    C   1.0     0.773062     0.605191     0.871389  Biso 1.000000     C
    C   1.0     0.368209     0.072451     0.381710  Biso 1.000000     C
    C   1.0     0.368212     0.072449     0.881696  Biso 1.000000     C
    C   1.0     0.368210     0.572438     0.381710  Biso 1.000000     C
    C   1.0     0.368214     0.572437     0.881696  Biso 1.000000     C
    C   1.0     0.868205     0.072454     0.381707  Biso 1.000000     C
    C   1.0     0.868208     0.072453     0.881692  Biso 1.000000     C
    C   1.0     0.868207     0.572442     0.381707  Biso 1.000000     C
    C   1.0     0.868210     0.572440     0.881692  Biso 1.000000     C
    C   1.0     0.363297     0.015697     0.319811  Biso 1.000000     C
    C   1.0     0.363301     0.015695     0.819796  Biso 1.000000     C
    C   1.0     0.363299     0.515684     0.319811  Biso 1.000000     C
    C   1.0     0.363302     0.515682     0.819796  Biso 1.000000     C
    C   1.0     0.863295     0.015699     0.319809  Biso 1.000000     C
    C   1.0     0.863298     0.015697     0.819794  Biso 1.000000     C
    C   1.0     0.863296     0.515686     0.319809  Biso 1.000000     C
    C   1.0     0.863300     0.515684     0.819794  Biso 1.000000     C
    N   1.0     0.309768     0.164613     0.174368  Biso 1.000000     N
    N   1.0     0.309774     0.164613     0.674356  Biso 1.000000     N
    N   1.0     0.309769     0.664600     0.174368  Biso 1.000000     N
    N   1.0     0.309775     0.664600     0.674355  Biso 1.000000     N
    N   1.0     0.809757     0.164616     0.174365  Biso 1.000000     N
    N   1.0     0.809762     0.164617     0.674352  Biso 1.000000     N
    N   1.0     0.809758     0.664604     0.174364  Biso 1.000000     N
    N   1.0     0.809764     0.664604     0.674352  Biso 1.000000     N
    N   1.0     0.259748     0.120395     0.122926  Biso 1.000000     N
    N   1.0     0.259752     0.120396     0.622913  Biso 1.000000     N
    N   1.0     0.259749     0.620382     0.122926  Biso 1.000000     N
    N   1.0     0.259754     0.620383     0.622913  Biso 1.000000     N
    N   1.0     0.759736     0.120400     0.122922  Biso 1.000000     N
    N   1.0     0.759741     0.120400     0.622909  Biso 1.000000     N
    N   1.0     0.759738     0.620387     0.122922  Biso 1.000000     N
    N   1.0     0.759742     0.620388     0.622909  Biso 1.000000     N
    N   1.0     0.316037     0.082717     0.093425  Biso 1.000000     N
    N   1.0     0.316041     0.082718     0.593411  Biso 1.000000     N
    N   1.0     0.316038     0.582704     0.093424  Biso 1.000000     N
    N   1.0     0.316043     0.582705     0.593411  Biso 1.000000     N
    N   1.0     0.816025     0.082721     0.093421  Biso 1.000000     N
    N   1.0     0.816029     0.082722     0.593407  Biso 1.000000     N
    N   1.0     0.816026     0.582708     0.093420  Biso 1.000000     N
    N   1.0     0.816031     0.582709     0.593407  Biso 1.000000     N
    N   1.0     0.398416     0.156698     0.179463  Biso 1.000000     N
    N   1.0     0.398422     0.156698     0.679450  Biso 1.000000     N
    N   1.0     0.398418     0.656685     0.179463  Biso 1.000000     N
    N   1.0     0.398424     0.656685     0.679450  Biso 1.000000     N
    N   1.0     0.898406     0.156701     0.179460  Biso 1.000000     N
    N   1.0     0.898412     0.156699     0.679449  Biso 1.000000     N
    N   1.0     0.898408     0.656687     0.179461  Biso 1.000000     N
    N   1.0     0.898413     0.656687     0.679448  Biso 1.000000     N
    N   1.0     0.364196     0.335326     0.174381  Biso 1.000000     N
    N   1.0     0.364200     0.335326     0.674367  Biso 1.000000     N
    N   1.0     0.364198     0.835313     0.174381  Biso 1.000000     N
    N   1.0     0.364202     0.835313     0.674368  Biso 1.000000     N
    N   1.0     0.864191     0.335328     0.174380  Biso 1.000000     N
    N   1.0     0.864195     0.335327     0.674365  Biso 1.000000     N
    N   1.0     0.864193     0.835314     0.174379  Biso 1.000000     N
    N   1.0     0.864197     0.835314     0.674365  Biso 1.000000     N
    N   1.0     0.362484     0.379535     0.122901  Biso 1.000000     N
    N   1.0     0.362488     0.379535     0.622888  Biso 1.000000     N
    N   1.0     0.362486     0.879522     0.122902  Biso 1.000000     N
    N   1.0     0.362490     0.879522     0.622888  Biso 1.000000     N
    N   1.0     0.862480     0.379535     0.122899  Biso 1.000000     N
    N   1.0     0.862485     0.379536     0.622886  Biso 1.000000     N
    N   1.0     0.862482     0.879522     0.122900  Biso 1.000000     N
    N   1.0     0.862486     0.879523     0.622886  Biso 1.000000     N
    N   1.0     0.276532     0.417322     0.093312  Biso 1.000000     N
    N   1.0     0.276536     0.417322     0.593298  Biso 1.000000     N
    N   1.0     0.276534     0.917309     0.093312  Biso 1.000000     N
    N   1.0     0.276538     0.917309     0.593299  Biso 1.000000     N
    N   1.0     0.776529     0.417323     0.093309  Biso 1.000000     N
    N   1.0     0.776533     0.417323     0.593296  Biso 1.000000     N
    N   1.0     0.776531     0.917310     0.093309  Biso 1.000000     N
    N   1.0     0.776535     0.917310     0.593296  Biso 1.000000     N
    N   1.0     0.280650     0.343365     0.179419  Biso 1.000000     N
    N   1.0     0.280653     0.343363     0.679404  Biso 1.000000     N
    N   1.0     0.280652     0.843352     0.179420  Biso 1.000000     N
    N   1.0     0.280655     0.843350     0.679404  Biso 1.000000     N
    N   1.0     0.780645     0.343367     0.179416  Biso 1.000000     N
    N   1.0     0.780648     0.343365     0.679401  Biso 1.000000     N
    N   1.0     0.780647     0.843355     0.179417  Biso 1.000000     N
    N   1.0     0.780650     0.843353     0.679402  Biso 1.000000     N
    N   1.0     0.190313     0.335338     0.325635  Biso 1.000000     N
    N   1.0     0.190319     0.335337     0.825623  Biso 1.000000     N
    N   1.0     0.190315     0.835324     0.325636  Biso 1.000000     N
    N   1.0     0.190320     0.835325     0.825622  Biso 1.000000     N
    N   1.0     0.690303     0.335341     0.325632  Biso 1.000000     N
    N   1.0     0.690308     0.335341     0.825620  Biso 1.000000     N
    N   1.0     0.690305     0.835327     0.325633  Biso 1.000000     N
    N   1.0     0.690309     0.835328     0.825619  Biso 1.000000     N
    N   1.0     0.240334     0.379556     0.377076  Biso 1.000000     N
    N   1.0     0.240339     0.379557     0.877063  Biso 1.000000     N
    N   1.0     0.240336     0.879543     0.377075  Biso 1.000000     N
    N   1.0     0.240341     0.879543     0.877062  Biso 1.000000     N
    N   1.0     0.740322     0.379561     0.377071  Biso 1.000000     N
    N   1.0     0.740327     0.379562     0.877058  Biso 1.000000     N
    N   1.0     0.740324     0.879548     0.377071  Biso 1.000000     N
    N   1.0     0.740329     0.879548     0.877058  Biso 1.000000     N
    N   1.0     0.184046     0.417235     0.406577  Biso 1.000000     N
    N   1.0     0.184050     0.417235     0.906564  Biso 1.000000     N
    N   1.0     0.184048     0.917221     0.406578  Biso 1.000000     N
    N   1.0     0.184052     0.917222     0.906564  Biso 1.000000     N
    N   1.0     0.684034     0.417238     0.406574  Biso 1.000000     N
    N   1.0     0.684038     0.417239     0.906561  Biso 1.000000     N
    N   1.0     0.684036     0.917225     0.406574  Biso 1.000000     N
    N   1.0     0.684040     0.917226     0.906560  Biso 1.000000     N
    N   1.0     0.101665     0.343252     0.320542  Biso 1.000000     N
    N   1.0     0.101670     0.343253     0.820528  Biso 1.000000     N
    N   1.0     0.101667     0.843241     0.320540  Biso 1.000000     N
    N   1.0     0.101672     0.843240     0.820527  Biso 1.000000     N
    N   1.0     0.601655     0.343255     0.320539  Biso 1.000000     N
    N   1.0     0.601660     0.343255     0.820525  Biso 1.000000     N
    N   1.0     0.601656     0.843243     0.320537  Biso 1.000000     N
    N   1.0     0.601661     0.843242     0.820525  Biso 1.000000     N
    N   1.0     0.135880     0.164625     0.325625  Biso 1.000000     N
    N   1.0     0.135885     0.164625     0.825612  Biso 1.000000     N
    N   1.0     0.135882     0.664613     0.325626  Biso 1.000000     N
    N   1.0     0.135886     0.664613     0.825612  Biso 1.000000     N
    N   1.0     0.635875     0.164627     0.325624  Biso 1.000000     N
    N   1.0     0.635880     0.164627     0.825610  Biso 1.000000     N
    N   1.0     0.635877     0.664614     0.325624  Biso 1.000000     N
    N   1.0     0.635881     0.664613     0.825610  Biso 1.000000     N
    N   1.0     0.137595     0.120418     0.377108  Biso 1.000000     N
    N   1.0     0.137600     0.120419     0.877094  Biso 1.000000     N
    N   1.0     0.137597     0.620405     0.377107  Biso 1.000000     N
    N   1.0     0.137601     0.620406     0.877094  Biso 1.000000     N
    N   1.0     0.637591     0.120419     0.377105  Biso 1.000000     N
    N   1.0     0.637596     0.120419     0.877092  Biso 1.000000     N
    N   1.0     0.637593     0.620405     0.377105  Biso 1.000000     N
    N   1.0     0.637598     0.620406     0.877092  Biso 1.000000     N
    N   1.0     0.223547     0.082632     0.406696  Biso 1.000000     N
    N   1.0     0.223551     0.082632     0.906683  Biso 1.000000     N
    N   1.0     0.223549     0.582619     0.406697  Biso 1.000000     N
    N   1.0     0.223553     0.582619     0.906683  Biso 1.000000     N
    N   1.0     0.723544     0.082633     0.406693  Biso 1.000000     N
    N   1.0     0.723548     0.082633     0.906680  Biso 1.000000     N
    N   1.0     0.723546     0.582620     0.406693  Biso 1.000000     N
    N   1.0     0.723550     0.582619     0.906680  Biso 1.000000     N
    N   1.0     0.219426     0.156587     0.320587  Biso 1.000000     N
    N   1.0     0.219430     0.156586     0.820572  Biso 1.000000     N
    N   1.0     0.219427     0.656574     0.320587  Biso 1.000000     N
    N   1.0     0.219432     0.656574     0.820573  Biso 1.000000     N
    N   1.0     0.719420     0.156590     0.320584  Biso 1.000000     N
    N   1.0     0.719424     0.156588     0.820569  Biso 1.000000     N
    N   1.0     0.719422     0.656577     0.320585  Biso 1.000000     N
    N   1.0     0.719426     0.656576     0.820570  Biso 1.000000     N
   Cl   1.0     0.077388     0.250071     0.155293  Biso 1.000000    Cl
   Cl   1.0     0.077392     0.250070     0.655280  Biso 1.000000    Cl
   Cl   1.0     0.077389     0.750058     0.155293  Biso 1.000000    Cl
   Cl   1.0     0.077394     0.750057     0.655279  Biso 1.000000    Cl
   Cl   1.0     0.577377     0.250075     0.155291  Biso 1.000000    Cl
   Cl   1.0     0.577382     0.250074     0.655278  Biso 1.000000    Cl
   Cl   1.0     0.577379     0.750062     0.155291  Biso 1.000000    Cl
   Cl   1.0     0.577384     0.750062     0.655278  Biso 1.000000    Cl
   Cl   1.0     0.422692     0.249879     0.344711  Biso 1.000000    Cl
   Cl   1.0     0.422697     0.249879     0.844697  Biso 1.000000    Cl
   Cl   1.0     0.422695     0.749866     0.344711  Biso 1.000000    Cl
   Cl   1.0     0.422699     0.749866     0.844697  Biso 1.000000    Cl
   Cl   1.0     0.922682     0.249883     0.344709  Biso 1.000000    Cl
   Cl   1.0     0.922686     0.249883     0.844696  Biso 1.000000    Cl
   Cl   1.0     0.922684     0.749870     0.344709  Biso 1.000000    Cl
   Cl   1.0     0.922688     0.749870     0.844695  Biso 1.000000    Cl
   Cd   1.0     0.000044     0.249976     0.250002  Biso 1.000000    Cd
   Cd   1.0     0.000049     0.249976     0.749988  Biso 1.000000    Cd
   Cd   1.0     0.000046     0.749963     0.250002  Biso 1.000000    Cd
   Cd   1.0     0.000050     0.749963     0.749988  Biso 1.000000    Cd
   Cd   1.0     0.500036     0.249976     0.250002  Biso 1.000000    Cd
   Cd   1.0     0.500040     0.249976     0.749988  Biso 1.000000    Cd
   Cd   1.0     0.500038     0.749963     0.250002  Biso 1.000000    Cd
   Cd   1.0     0.500042     0.749963     0.749988  Biso 1.000000    Cd
   Cd   1.0     0.250040     0.249975     0.250002  Biso 1.000000    Cd
   Cd   1.0     0.250045     0.249974     0.749989  Biso 1.000000    Cd
   Cd   1.0     0.250042     0.749961     0.250002  Biso 1.000000    Cd
   Cd   1.0     0.250046     0.749961     0.749989  Biso 1.000000    Cd
   Cd   1.0     0.750030     0.249978     0.249999  Biso 1.000000    Cd
   Cd   1.0     0.750035     0.249978     0.749985  Biso 1.000000    Cd
   Cd   1.0     0.750032     0.749965     0.249999  Biso 1.000000    Cd
   Cd   1.0     0.750036     0.749965     0.749985  Biso 1.000000    Cd
   Cd   1.0     0.250045    -0.000022     0.000009  Biso 1.000000    Cd
   Cd   1.0     0.250042    -0.000018     0.499996  Biso 1.000000    Cd
   Cd   1.0     0.250046     0.499965     0.000009  Biso 1.000000    Cd
   Cd   1.0     0.250043     0.499969     0.499996  Biso 1.000000    Cd
   Cd   1.0     0.750038    -0.000019     0.000006  Biso 1.000000    Cd
   Cd   1.0     0.750035    -0.000016     0.499993  Biso 1.000000    Cd
   Cd   1.0     0.750039     0.499967     0.000006  Biso 1.000000    Cd
   Cd   1.0     0.750036     0.499971     0.499993  Biso 1.000000    Cd
