#======================================================================

# CRYSTAL DATA

#----------------------------------------------------------------------

data_VESTA_phase_1


_pd_phase_name                         MOF
_cell_length_a                         15.84100
_cell_length_b                         16.16400
_cell_length_c                         22.83800
_cell_angle_alpha                      90.00900
_cell_angle_beta                       89.99300
_cell_angle_gamma                      89.94000
_symmetry_space_group_name_H-M         "P 1"
_symmetry_Int_Tables_number            1

loop_
_symmetry_equiv_pos_as_xyz
   "x, y, z"

loop_
   _atom_site_label
   _atom_site_occupancy
   _atom_site_fract_x
   _atom_site_fract_y
   _atom_site_fract_z
   _atom_site_adp_type
   _atom_site_B_iso_or_equiv
   _atom_site_type_symbol
    H   1.0     0.770908     0.716726     0.118572  Biso 1.000000     H
    H   1.0     0.834658     0.805900     0.043183  Biso 1.000000     H
    H   1.0     0.054564     0.647764     0.040927  Biso 1.000000     H
    H   1.0     0.989530     0.560038     0.117085  Biso 1.000000     H
    H   1.0     0.935287     0.652434     0.934706  Biso 1.000000     H
    H   1.0     0.003407     0.563476     0.860706  Biso 1.000000     H
    H   1.0     0.227900     0.711736     0.870377  Biso 1.000000     H
    H   1.0     0.160451     0.802619     0.943177  Biso 1.000000     H
    H   1.0     0.764535     0.285503     0.390738  Biso 1.000000     H
    H   1.0     0.703830     0.186819     0.461371  Biso 1.000000     H
    H   1.0     0.473571     0.330106     0.463494  Biso 1.000000     H
    H   1.0     0.534296     0.425188     0.390338  Biso 1.000000     H
    H   1.0     0.596901     0.326857     0.572633  Biso 1.000000     H
    H   1.0     0.521627     0.418560     0.641097  Biso 1.000000     H
    H   1.0     0.296009     0.274422     0.618746  Biso 1.000000     H
    H   1.0     0.371768     0.178437     0.553761  Biso 1.000000     H
    H   1.0     0.730894     0.730168     0.270639  Biso 1.000000     H
    H   1.0     0.661606     0.870361     0.273030  Biso 1.000000     H
    H   1.0     0.421346     0.744755     0.263750  Biso 1.000000     H
    H   1.0     0.499739     0.611060     0.260482  Biso 1.000000     H
    H   1.0     0.423251     0.899756     0.264077  Biso 1.000000     H
    H   1.0     0.593651     0.103470     0.280688  Biso 1.000000     H
    H   1.0     0.594316     0.257963     0.286473  Biso 1.000000     H
    H   1.0     0.518928     0.392347     0.275150  Biso 1.000000     H
    H   1.0     0.295252     0.274654     0.231017  Biso 1.000000     H
    H   1.0     0.362154     0.133967     0.240382  Biso 1.000000     H
    H   1.0     0.271055     0.285637     0.882696  Biso 1.000000     H
    H   1.0     0.334203     0.195867     0.957993  Biso 1.000000     H
    H   1.0     0.555234     0.352053     0.960210  Biso 1.000000     H
    H   1.0     0.490924     0.440213     0.883983  Biso 1.000000     H
    H   1.0     0.435037     0.347063     0.066344  Biso 1.000000     H
    H   1.0     0.503223     0.436282     0.140085  Biso 1.000000     H
    H   1.0     0.727860     0.287745     0.130481  Biso 1.000000     H
    H   1.0     0.660356     0.196618     0.057839  Biso 1.000000     H
    H   1.0     0.264496     0.713897     0.609211  Biso 1.000000     H
    H   1.0     0.203909     0.812642     0.538481  Biso 1.000000     H
    H   1.0     0.973527     0.670026     0.536532  Biso 1.000000     H
    H   1.0     0.034129     0.574902     0.609769  Biso 1.000000     H
    H   1.0     0.096992     0.673160     0.427100  Biso 1.000000     H
    H   1.0     0.021488     0.581178     0.359090  Biso 1.000000     H
    H   1.0     0.795526     0.725002     0.382256  Biso 1.000000     H
    H   1.0     0.871512     0.821345     0.446679  Biso 1.000000     H
    H   1.0     0.231511     0.269357     0.732594  Biso 1.000000     H
    H   1.0     0.162280     0.129288     0.729955  Biso 1.000000     H
    H   1.0     0.921823     0.255535     0.734506  Biso 1.000000     H
    H   1.0     0.000097     0.389063     0.738328  Biso 1.000000     H
    H   1.0     0.923590     0.100605     0.734975  Biso 1.000000     H
    H   1.0     0.093737     0.896209     0.720154  Biso 1.000000     H
    H   1.0     0.094407     0.741838     0.714284  Biso 1.000000     H
    H   1.0     0.019004     0.607579     0.725314  Biso 1.000000     H
    H   1.0     0.794769     0.725629     0.768198  Biso 1.000000     H
    H   1.0     0.861647     0.866210     0.759060  Biso 1.000000     H
    H   1.0     0.771103     0.285668     0.617247  Biso 1.000000     H
    H   1.0     0.834276     0.195865     0.541954  Biso 1.000000     H
    H   1.0     0.055281     0.352069     0.539718  Biso 1.000000     H
    H   1.0     0.990961     0.440255     0.615952  Biso 1.000000     H
    H   1.0     0.935184     0.346889     0.433568  Biso 1.000000     H
    H   1.0     0.003372     0.435959     0.359752  Biso 1.000000     H
    H   1.0     0.228031     0.287480     0.369459  Biso 1.000000     H
    H   1.0     0.160480     0.196453     0.442142  Biso 1.000000     H
    H   1.0     0.764493     0.713864     0.890787  Biso 1.000000     H
    H   1.0     0.703896     0.812627     0.961528  Biso 1.000000     H
    H   1.0     0.473483     0.670035     0.963475  Biso 1.000000     H
    H   1.0     0.534111     0.574893     0.890210  Biso 1.000000     H
    H   1.0     0.596979     0.673186     0.072856  Biso 1.000000     H
    H   1.0     0.521664     0.581444     0.141110  Biso 1.000000     H
    H   1.0     0.295768     0.725520     0.118362  Biso 1.000000     H
    H   1.0     0.371557     0.821528     0.053579  Biso 1.000000     H
    H   1.0     0.731488     0.269365     0.766894  Biso 1.000000     H
    H   1.0     0.662242     0.129307     0.769569  Biso 1.000000     H
    H   1.0     0.421774     0.255600     0.765635  Biso 1.000000     H
    H   1.0     0.500076     0.389119     0.761745  Biso 1.000000     H
    H   1.0     0.423513     0.100665     0.765124  Biso 1.000000     H
    H   1.0     0.593704     0.896260     0.779661  Biso 1.000000     H
    H   1.0     0.594393     0.741891     0.785530  Biso 1.000000     H
    H   1.0     0.518968     0.607628     0.774580  Biso 1.000000     H
    H   1.0     0.294554     0.725667     0.732157  Biso 1.000000     H
    H   1.0     0.361443     0.866254     0.741242  Biso 1.000000     H
    H   1.0     0.271069     0.714980     0.382019  Biso 1.000000     H
    H   1.0     0.334506     0.804882     0.457153  Biso 1.000000     H
    H   1.0     0.555492     0.648175     0.459237  Biso 1.000000     H
    H   1.0     0.490902     0.559914     0.383190  Biso 1.000000     H
    H   1.0     0.435420     0.652641     0.565457  Biso 1.000000     H
    H   1.0     0.503551     0.563697     0.639435  Biso 1.000000     H
    H   1.0     0.728076     0.711909     0.629708  Biso 1.000000     H
    H   1.0     0.660621     0.802785     0.556915  Biso 1.000000     H
    H   1.0     0.264458     0.285599     0.109262  Biso 1.000000     H
    H   1.0     0.203743     0.186846     0.038676  Biso 1.000000     H
    H   1.0     0.973607     0.330290     0.036411  Biso 1.000000     H
    H   1.0     0.034362     0.425495     0.109480  Biso 1.000000     H
    H   1.0     0.096858     0.326822     0.927280  Biso 1.000000     H
    H   1.0     0.021581     0.418461     0.858822  Biso 1.000000     H
    H   1.0     0.795973     0.274354     0.881252  Biso 1.000000     H
    H   1.0     0.871731     0.178439     0.946254  Biso 1.000000     H
    H   1.0     0.231049     0.730287     0.230525  Biso 1.000000     H
    H   1.0     0.161716     0.870456     0.227974  Biso 1.000000     H
    H   1.0     0.921468     0.744750     0.236569  Biso 1.000000     H
    H   1.0    -0.000145     0.611125     0.240129  Biso 1.000000     H
    H   1.0     0.923288     0.899771     0.236029  Biso 1.000000     H
    H   1.0     0.093635     0.103539     0.219446  Biso 1.000000     H
    H   1.0     0.094284     0.258041     0.213526  Biso 1.000000     H
    H   1.0     0.018916     0.392426     0.224799  Biso 1.000000     H
    H   1.0     0.795013     0.274772     0.268436  Biso 1.000000     H
    H   1.0     0.861936     0.134092     0.259193  Biso 1.000000     H
    C   1.0     0.836273     0.579914     0.169461  Biso 1.000000     C
    C   1.0     0.875359     0.632253     0.122360  Biso 1.000000     C
    C   1.0     0.832974     0.701957     0.101020  Biso 1.000000     C
    C   1.0     0.869445     0.751988     0.058226  Biso 1.000000     C
    C   1.0     0.949492     0.733142     0.035705  Biso 1.000000     C
    C   1.0     0.992127     0.663378     0.057510  Biso 1.000000     C
    C   1.0     0.955548     0.613474     0.100130  Biso 1.000000     C
    C   1.0     0.995909     0.787826     0.990576  Biso 1.000000     C
    C   1.0     0.056673     0.844375     0.027022  Biso 1.000000     C
    C   1.0     0.935768     0.845282     0.954666  Biso 1.000000     C
    C   1.0     0.042779     0.733789     0.945247  Biso 1.000000     C
    C   1.0     0.999511     0.666238     0.920815  Biso 1.000000     C
    C   1.0     0.037911     0.615442     0.879379  Biso 1.000000     C
    C   1.0     0.120844     0.631334     0.861274  Biso 1.000000     C
    C   1.0     0.163580     0.699430     0.884750  Biso 1.000000     C
    C   1.0     0.125101     0.750338     0.926110  Biso 1.000000     C
    C   1.0     0.164428     0.576968     0.817438  Biso 1.000000     C
    C   1.0     0.692038     0.419057     0.341378  Biso 1.000000     C
    C   1.0     0.654005     0.361851     0.386048  Biso 1.000000     C
    C   1.0     0.700487     0.294232     0.406700  Biso 1.000000     C
    C   1.0     0.665884     0.239061     0.447010  Biso 1.000000     C
    C   1.0     0.584038     0.251488     0.468507  Biso 1.000000     C
    C   1.0     0.537328     0.319234     0.447460  Biso 1.000000     C
    C   1.0     0.571542     0.373452     0.406605  Biso 1.000000     C
    C   1.0     0.540707     0.193369     0.513029  Biso 1.000000     C
    C   1.0     0.483035     0.134333     0.476471  Biso 1.000000     C
    C   1.0     0.604612     0.139574     0.549211  Biso 1.000000     C
    C   1.0     0.490292     0.245827     0.557509  Biso 1.000000     C
    C   1.0     0.531301     0.313729     0.583321  Biso 1.000000     C
    C   1.0     0.488699     0.366372     0.621399  Biso 1.000000     C
    C   1.0     0.403157     0.352998     0.633832  Biso 1.000000     C
    C   1.0     0.362550     0.284537     0.609156  Biso 1.000000     C
    C   1.0     0.405716     0.230838     0.571942  Biso 1.000000     C
    C   1.0     0.355047     0.410646     0.673061  Biso 1.000000     C
    C   1.0     0.662617     0.737234     0.269145  Biso 1.000000     C
    C   1.0     0.624301     0.813977     0.270571  Biso 1.000000     C
    C   1.0     0.535686     0.818962     0.268200  Biso 1.000000     C
    C   1.0     0.490098     0.744732     0.265317  Biso 1.000000     C
    C   1.0     0.533341     0.669685     0.263892  Biso 1.000000     C
    C   1.0     0.492485     0.898675     0.266893  Biso 1.000000     C
    C   1.0     0.525956     0.104705     0.270246  Biso 1.000000     C
    C   1.0     0.483824     0.184552     0.264328  Biso 1.000000     C
    C   1.0     0.527987     0.258533     0.273870  Biso 1.000000     C
    C   1.0     0.486279     0.333912     0.267755  Biso 1.000000     C
    C   1.0     0.361269     0.267179     0.243105  Biso 1.000000     C
    C   1.0     0.398230     0.190100     0.248376  Biso 1.000000     C
    C   1.0     0.337830     0.421396     0.831240  Biso 1.000000     C
    C   1.0     0.376243     0.369031     0.878673  Biso 1.000000     C
    C   1.0     0.333270     0.299840     0.900179  Biso 1.000000     C
    C   1.0     0.369402     0.249454     0.942955  Biso 1.000000     C
    C   1.0     0.449650     0.267474     0.965392  Biso 1.000000     C
    C   1.0     0.492688     0.336946     0.943629  Biso 1.000000     C
    C   1.0     0.456506     0.387134     0.900972  Biso 1.000000     C
    C   1.0     0.496256     0.212118     0.010155  Biso 1.000000     C
    C   1.0     0.557095     0.156428     0.973170  Biso 1.000000     C
    C   1.0     0.436163     0.153850     0.045516  Biso 1.000000     C
    C   1.0     0.542699     0.265669     0.055815  Biso 1.000000     C
    C   1.0     0.499290     0.333259     0.080214  Biso 1.000000     C
    C   1.0     0.537718     0.384186     0.121482  Biso 1.000000     C
    C   1.0     0.620731     0.368303     0.139440  Biso 1.000000     C
    C   1.0     0.663500     0.300015     0.116140  Biso 1.000000     C
    C   1.0     0.625020     0.248990     0.074915  Biso 1.000000     C
    C   1.0     0.664414     0.422912     0.182966  Biso 1.000000     C
    C   1.0     0.191911     0.580730     0.658715  Biso 1.000000     C
    C   1.0     0.153890     0.637914     0.613988  Biso 1.000000     C
    C   1.0     0.200441     0.705353     0.593265  Biso 1.000000     C
    C   1.0     0.165908     0.760547     0.552901  Biso 1.000000     C
    C   1.0     0.084045     0.748336     0.531448  Biso 1.000000     C
    C   1.0     0.037277     0.680743     0.552545  Biso 1.000000     C
    C   1.0     0.071424     0.626502     0.593452  Biso 1.000000     C
    C   1.0     0.040720     0.806571     0.486949  Biso 1.000000     C
    C   1.0     0.983040     0.865651     0.523533  Biso 1.000000     C
    C   1.0     0.104587     0.860359     0.450783  Biso 1.000000     C
    C   1.0     0.990267     0.754132     0.442537  Biso 1.000000     C
    C   1.0     0.031266     0.686196     0.416656  Biso 1.000000     C
    C   1.0     0.988535     0.633375     0.378841  Biso 1.000000     C
    C   1.0     0.902836     0.646581     0.366744  Biso 1.000000     C
    C   1.0     0.862202     0.715038     0.391528  Biso 1.000000     C
    C   1.0     0.905512     0.768947     0.428437  Biso 1.000000     C
    C   1.0     0.854608     0.588977     0.327611  Biso 1.000000     C
    C   1.0     0.163194     0.262466     0.733026  Biso 1.000000     C
    C   1.0     0.124906     0.185775     0.731450  Biso 1.000000     C
    C   1.0     0.036228     0.180990     0.732328  Biso 1.000000     C
    C   1.0     0.990613     0.255369     0.734084  Biso 1.000000     C
    C   1.0     0.033802     0.330340     0.735776  Biso 1.000000     C
    C   1.0     0.992903     0.101401     0.733213  Biso 1.000000     C
    C   1.0     0.025918     0.895213     0.730225  Biso 1.000000     C
    C   1.0     0.983655     0.815458     0.735822  Biso 1.000000     C
    C   1.0     0.027935     0.741387     0.726537  Biso 1.000000     C
    C   1.0     0.986240     0.666066     0.732499  Biso 1.000000     C
    C   1.0     0.860916     0.732991     0.756448  Biso 1.000000     C
    C   1.0     0.897874     0.810029     0.751297  Biso 1.000000     C
    C   1.0     0.837870     0.421424     0.668719  Biso 1.000000     C
    C   1.0     0.876291     0.369060     0.621272  Biso 1.000000     C
    C   1.0     0.833321     0.299866     0.599762  Biso 1.000000     C
    C   1.0     0.869470     0.249460     0.556989  Biso 1.000000     C
    C   1.0     0.949730     0.267466     0.534554  Biso 1.000000     C
    C   1.0     0.992750     0.336961     0.556304  Biso 1.000000     C
    C   1.0     0.956551     0.387170     0.598962  Biso 1.000000     C
    C   1.0     0.996394     0.212065     0.489844  Biso 1.000000     C
    C   1.0     0.057136     0.156404     0.526825  Biso 1.000000     C
    C   1.0     0.936339     0.153793     0.454484  Biso 1.000000     C
    C   1.0     0.042845     0.265533     0.444152  Biso 1.000000     C
    C   1.0     0.999441     0.333065     0.419706  Biso 1.000000     C
    C   1.0     0.037852     0.383896     0.378392  Biso 1.000000     C
    C   1.0     0.120890     0.368023     0.360460  Biso 1.000000     C
    C   1.0     0.163657     0.299766     0.383781  Biso 1.000000     C
    C   1.0     0.125160     0.248808     0.425042  Biso 1.000000     C
    C   1.0     0.164529     0.422757     0.317002  Biso 1.000000     C
    C   1.0     0.691917     0.580699     0.841279  Biso 1.000000     C
    C   1.0     0.653876     0.637898     0.886002  Biso 1.000000     C
    C   1.0     0.700431     0.705332     0.906733  Biso 1.000000     C
    C   1.0     0.665892     0.760536     0.947101  Biso 1.000000     C
    C   1.0     0.584024     0.748330     0.968558  Biso 1.000000     C
    C   1.0     0.537252     0.680741     0.947456  Biso 1.000000     C
    C   1.0     0.571403     0.626492     0.906538  Biso 1.000000     C
    C   1.0     0.540697     0.806580     0.013068  Biso 1.000000     C
    C   1.0     0.483028     0.865658     0.976463  Biso 1.000000     C
    C   1.0     0.604585     0.860373     0.049216  Biso 1.000000     C
    C   1.0     0.490259     0.754216     0.057546  Biso 1.000000     C
    C   1.0     0.531305     0.686307     0.083417  Biso 1.000000     C
    C   1.0     0.488666     0.633628     0.121383  Biso 1.000000     C
    C   1.0     0.403040     0.646964     0.133679  Biso 1.000000     C
    C   1.0     0.362381     0.715420     0.108928  Biso 1.000000     C
    C   1.0     0.405578     0.769153     0.071822  Biso 1.000000     C
    C   1.0     0.354961     0.589336     0.172883  Biso 1.000000     C
    C   1.0     0.663168     0.262487     0.766612  Biso 1.000000     C
    C   1.0     0.624872     0.185802     0.768204  Biso 1.000000     C
    C   1.0     0.536190     0.181034     0.767530  Biso 1.000000     C
    C   1.0     0.490566     0.255422     0.765908  Biso 1.000000     C
    C   1.0     0.533778     0.330388     0.764184  Biso 1.000000     C
    C   1.0     0.492832     0.101452     0.766740  Biso 1.000000     C
    C   1.0     0.525847     0.895262     0.769725  Biso 1.000000     C
    C   1.0     0.483543     0.815506     0.764219  Biso 1.000000     C
    C   1.0     0.527877     0.741438     0.773403  Biso 1.000000     C
    C   1.0     0.486158     0.666114     0.767481  Biso 1.000000     C
    C   1.0     0.360741     0.733034     0.743788  Biso 1.000000     C
    C   1.0     0.397704     0.810073     0.748912  Biso 1.000000     C
    C   1.0     0.337609     0.578687     0.330953  Biso 1.000000     C
    C   1.0     0.376212     0.631315     0.378076  Biso 1.000000     C
    C   1.0     0.333325     0.700721     0.399452  Biso 1.000000     C
    C   1.0     0.369598     0.751150     0.442100  Biso 1.000000     C
    C   1.0     0.449850     0.732889     0.464480  Biso 1.000000     C
    C   1.0     0.492907     0.663347     0.442709  Biso 1.000000     C
    C   1.0     0.456588     0.613124     0.400188  Biso 1.000000     C
    C   1.0     0.496060     0.787839     0.509490  Biso 1.000000     C
    C   1.0     0.556791     0.844365     0.472999  Biso 1.000000     C
    C   1.0     0.435795     0.845294     0.545322  Biso 1.000000     C
    C   1.0     0.542948     0.733962     0.554893  Biso 1.000000     C
    C   1.0     0.499642     0.666443     0.579342  Biso 1.000000     C
    C   1.0     0.538049     0.615661     0.620762  Biso 1.000000     C
    C   1.0     0.620996     0.631532     0.638828  Biso 1.000000     C
    C   1.0     0.663744     0.699620     0.615358  Biso 1.000000     C
    C   1.0     0.625269     0.750520     0.574005  Biso 1.000000     C
    C   1.0     0.664550     0.577105     0.682612  Biso 1.000000     C
    C   1.0     0.192032     0.419252     0.158565  Biso 1.000000     C
    C   1.0     0.153985     0.362036     0.113890  Biso 1.000000     C
    C   1.0     0.200426     0.294343     0.093287  Biso 1.000000     C
    C   1.0     0.165817     0.239132     0.052999  Biso 1.000000     C
    C   1.0     0.083993     0.251566     0.031476  Biso 1.000000     C
    C   1.0     0.037326     0.319393     0.052466  Biso 1.000000     C
    C   1.0     0.071558     0.373667     0.093288  Biso 1.000000     C
    C   1.0     0.040681     0.193402     0.986955  Biso 1.000000     C
    C   1.0     0.983035     0.134343     0.023530  Biso 1.000000     C
    C   1.0     0.104604     0.139591     0.950768  Biso 1.000000     C
    C   1.0     0.990265     0.245813     0.942467  Biso 1.000000     C
    C   1.0     0.031254     0.313684     0.916618  Biso 1.000000     C
    C   1.0     0.988660     0.366301     0.878545  Biso 1.000000     C
    C   1.0     0.903115     0.352923     0.866128  Biso 1.000000     C
    C   1.0     0.862511     0.284488     0.890835  Biso 1.000000     C
    C   1.0     0.905685     0.230818     0.928051  Biso 1.000000     C
    C   1.0     0.855010     0.410567     0.826904  Biso 1.000000     C
    C   1.0     0.162761     0.737330     0.231866  Biso 1.000000     C
    C   1.0     0.124417     0.814059     0.230325  Biso 1.000000     C
    C   1.0     0.035782     0.819020     0.232377  Biso 1.000000     C
    C   1.0     0.990232     0.744769     0.235192  Biso 1.000000     C
    C   1.0     0.033484     0.669739     0.236752  Biso 1.000000     C
    C   1.0     0.992540     0.898723     0.233405  Biso 1.000000     C
    C   1.0     0.025886     0.104776     0.229731  Biso 1.000000     C
    C   1.0     0.983720     0.184637     0.235482  Biso 1.000000     C
    C   1.0     0.027903     0.258616     0.226013  Biso 1.000000     C
    C   1.0     0.986207     0.334006     0.232085  Biso 1.000000     C
    C   1.0     0.861081     0.267299     0.256478  Biso 1.000000     C
    C   1.0     0.898056     0.190213     0.251262  Biso 1.000000     C
    N   1.0     0.618268     0.665765     0.265592  Biso 1.000000     N
    N   1.0     0.535486     0.966933     0.267788  Biso 1.000000     N
    N   1.0     0.484114     0.036521     0.262934  Biso 1.000000     N
    N   1.0     0.404124     0.338381     0.252722  Biso 1.000000     N
    N   1.0     0.118774     0.334085     0.735371  Biso 1.000000     N
    N   1.0     0.035758     0.032963     0.733113  Biso 1.000000     N
    N   1.0     0.984175     0.963556     0.737448  Biso 1.000000     N
    N   1.0     0.903929     0.661708     0.747134  Biso 1.000000     N
    N   1.0     0.618752     0.334118     0.764435  Biso 1.000000     N
    N   1.0     0.535693     0.033007     0.766773  Biso 1.000000     N
    N   1.0     0.484070     0.963602     0.762563  Biso 1.000000     N
    N   1.0     0.403804     0.661753     0.752978  Biso 1.000000     N
    N   1.0     0.118430     0.665830     0.235233  Biso 1.000000     N
    N   1.0     0.035483     0.967008     0.232467  Biso 1.000000     N
    N   1.0     0.984060     0.036595     0.237058  Biso 1.000000     N
    N   1.0     0.903992     0.338509     0.246979  Biso 1.000000     N
    O   1.0     0.772389     0.609801     0.195886  Biso 1.000000     O
    O   1.0     0.871145     0.510297     0.179964  Biso 1.000000     O
    O   1.0     0.232795     0.604570     0.795619  Biso 1.000000     O
    O   1.0     0.129989     0.507849     0.804879  Biso 1.000000     O
    O   1.0     0.768536     0.405676     0.327392  Biso 1.000000     O
    O   1.0     0.644245     0.475291     0.320269  Biso 1.000000     O
    O   1.0     0.396352     0.469359     0.697038  Biso 1.000000     O
    O   1.0     0.276841     0.395835     0.679779  Biso 1.000000     O
    O   1.0     0.273340     0.392321     0.805189  Biso 1.000000     O
    O   1.0     0.373959     0.490129     0.819997  Biso 1.000000     O
    O   1.0     0.732668     0.395162     0.204886  Biso 1.000000     O
    O   1.0     0.630190     0.492350     0.195163  Biso 1.000000     O
    O   1.0     0.268287     0.594238     0.672840  Biso 1.000000     O
    O   1.0     0.144276     0.524368     0.679715  Biso 1.000000     O
    O   1.0     0.896201     0.530931     0.302880  Biso 1.000000     O
    O   1.0     0.776151     0.603212     0.321630  Biso 1.000000     O
    O   1.0     0.773387     0.392338     0.694779  Biso 1.000000     O
    O   1.0     0.873988     0.490159     0.679972  Biso 1.000000     O
    O   1.0     0.233083     0.395367     0.295261  Biso 1.000000     O
    O   1.0     0.129976     0.491967     0.304691  Biso 1.000000     O
    O   1.0     0.768310     0.594183     0.827176  Biso 1.000000     O
    O   1.0     0.644281     0.524349     0.820261  Biso 1.000000     O
    O   1.0     0.396357     0.530634     0.196897  Biso 1.000000     O
    O   1.0     0.276727     0.604159     0.179612  Biso 1.000000     O
    O   1.0     0.272880     0.607609     0.305038  Biso 1.000000     O
    O   1.0     0.373830     0.509880     0.319843  Biso 1.000000     O
    O   1.0     0.732931     0.604648     0.704436  Biso 1.000000     O
    O   1.0     0.630070     0.507993     0.695122  Biso 1.000000     O
    O   1.0     0.268467     0.405783     0.172618  Biso 1.000000     O
    O   1.0     0.144295     0.475605     0.179626  Biso 1.000000     O
    O   1.0     0.896342     0.469251     0.802914  Biso 1.000000     O
    O   1.0     0.776800     0.395781     0.820196  Biso 1.000000     O
    F   1.0     0.015437     0.881294     0.072305  Biso 1.000000     F
    F   1.0     0.121063     0.798909     0.050260  Biso 1.000000     F
    F   1.0     0.092515     0.906079     0.995005  Biso 1.000000     F
    F   1.0     0.977600     0.882208     0.909949  Biso 1.000000     F
    F   1.0     0.900010     0.906274     0.987423  Biso 1.000000     F
    F   1.0     0.870879     0.801804     0.930172  Biso 1.000000     F
    F   1.0     0.418698     0.176869     0.450436  Biso 1.000000     F
    F   1.0     0.526274     0.097021     0.432495  Biso 1.000000     F
    F   1.0     0.448144     0.073358     0.509658  Biso 1.000000     F
    F   1.0     0.644176     0.080005     0.517226  Biso 1.000000     F
    F   1.0     0.566416     0.100854     0.594753  Biso 1.000000     F
    F   1.0     0.666679     0.187845     0.572544  Biso 1.000000     F
    F   1.0     0.515340     0.121296     0.927535  Biso 1.000000     F
    F   1.0     0.621800     0.201389     0.950018  Biso 1.000000     F
    F   1.0     0.592474     0.093902     0.004758  Biso 1.000000     F
    F   1.0     0.477476     0.115126     0.089857  Biso 1.000000     F
    F   1.0     0.399948     0.093724     0.012364  Biso 1.000000     F
    F   1.0     0.371605     0.197879     0.070092  Biso 1.000000     F
    F   1.0     0.918737     0.823173     0.549579  Biso 1.000000     F
    F   1.0     0.026240     0.902938     0.567489  Biso 1.000000     F
    F   1.0     0.948117     0.926646     0.490331  Biso 1.000000     F
    F   1.0     0.144105     0.919901     0.482763  Biso 1.000000     F
    F   1.0     0.066373     0.899128     0.405243  Biso 1.000000     F
    F   1.0     0.166702     0.812064     0.427430  Biso 1.000000     F
    F   1.0     0.015340     0.121294     0.572450  Biso 1.000000     F
    F   1.0     0.121828     0.201375     0.549972  Biso 1.000000     F
    F   1.0     0.092496     0.093877     0.495238  Biso 1.000000     F
    F   1.0     0.977572     0.115009     0.410130  Biso 1.000000     F
    F   1.0     0.899967     0.093742     0.487621  Biso 1.000000     F
    F   1.0     0.871995     0.197954     0.429866  Biso 1.000000     F
    F   1.0     0.418726     0.823172     0.950424  Biso 1.000000     F
    F   1.0     0.526249     0.902928     0.932498  Biso 1.000000     F
    F   1.0     0.448099     0.926660     0.009675  Biso 1.000000     F
    F   1.0     0.644108     0.919899     0.017230  Biso 1.000000     F
    F   1.0     0.566377     0.899148     0.094764  Biso 1.000000     F
    F   1.0     0.666695     0.812077     0.072554  Biso 1.000000     F
    F   1.0     0.515501     0.881185     0.427707  Biso 1.000000     F
    F   1.0     0.621263     0.798948     0.449763  Biso 1.000000     F
    F   1.0     0.592542     0.906116     0.504979  Biso 1.000000     F
    F   1.0     0.477577     0.882252     0.590045  Biso 1.000000     F
    F   1.0     0.400012     0.906236     0.512549  Biso 1.000000     F
    F   1.0     0.370899     0.801801     0.569807  Biso 1.000000     F
    F   1.0     0.918695     0.176875     0.049578  Biso 1.000000     F
    F   1.0     0.026260     0.097029     0.067493  Biso 1.000000     F
    F   1.0     0.948158     0.073373     0.990323  Biso 1.000000     F
    F   1.0     0.144163     0.080027     0.982749  Biso 1.000000     F
    F   1.0     0.066414     0.100857     0.905228  Biso 1.000000     F
    F   1.0     0.166676     0.187851     0.927435  Biso 1.000000     F
   Zn   1.0     0.689696     0.559158     0.259801  Biso 1.000000    Zn
   Zn   1.0     0.833124     0.445434     0.252617  Biso 1.000000    Zn
   Zn   1.0     0.189923     0.440904     0.740467  Biso 1.000000    Zn
   Zn   1.0     0.333302     0.554653     0.747543  Biso 1.000000    Zn
   Zn   1.0     0.689938     0.440915     0.759488  Biso 1.000000    Zn
   Zn   1.0     0.833343     0.554631     0.752460  Biso 1.000000    Zn
   Zn   1.0     0.189798     0.559069     0.240381  Biso 1.000000    Zn
   Zn   1.0     0.333368     0.445406     0.247430  Biso 1.000000    Zn
