#======================================================================

# CRYSTAL DATA

#----------------------------------------------------------------------

data_VESTA_phase_1


_pd_phase_name                         MOF
_cell_length_a                         21.02800
_cell_length_b                         18.14000
_cell_length_c                         18.13600
_cell_angle_alpha                      119.95300
_cell_angle_beta                       89.99800
_cell_angle_gamma                      89.99500
_symmetry_space_group_name_H-M         "P 1"
_symmetry_Int_Tables_number            1

loop_
_symmetry_equiv_pos_as_xyz
   "x, y, z"

loop_
   _atom_site_label
   _atom_site_occupancy
   _atom_site_fract_x
   _atom_site_fract_y
   _atom_site_fract_z
   _atom_site_adp_type
   _atom_site_B_iso_or_equiv
   _atom_site_type_symbol
    H   1.0     0.346051     0.375017     0.795495  Biso 1.000000     H
    H   1.0     0.846054     0.374901     0.795449  Biso 1.000000     H
    H   1.0     0.281903     0.374373     0.731484  Biso 1.000000     H
    H   1.0     0.781912     0.374298     0.731453  Biso 1.000000     H
    H   1.0     0.306258     0.278198     0.725956  Biso 1.000000     H
    H   1.0     0.806224     0.278110     0.725922  Biso 1.000000     H
    H   1.0     0.207713     0.326332     0.806150  Biso 1.000000     H
    H   1.0     0.707692     0.326325     0.806137  Biso 1.000000     H
    H   1.0     0.284121     0.252221     0.849707  Biso 1.000000     H
    H   1.0     0.784071     0.252147     0.849664  Biso 1.000000     H
    H   1.0     0.238159     0.325899     0.937885  Biso 1.000000     H
    H   1.0     0.738099     0.325821     0.937832  Biso 1.000000     H
    H   1.0     0.317569     0.350921     0.928358  Biso 1.000000     H
    H   1.0     0.817522     0.350826     0.928349  Biso 1.000000     H
    H   1.0     0.213218     0.474161     0.850628  Biso 1.000000     H
    H   1.0     0.713297     0.474149     0.850598  Biso 1.000000     H
    H   1.0     0.329427     0.627007     0.980840  Biso 1.000000     H
    H   1.0     0.829586     0.626855     0.980767  Biso 1.000000     H
    H   1.0     0.247044     0.623414     0.956236  Biso 1.000000     H
    H   1.0     0.747196     0.623401     0.956261  Biso 1.000000     H
    H   1.0     0.408243     0.536460     0.854441  Biso 1.000000     H
    H   1.0     0.908281     0.536104     0.854249  Biso 1.000000     H
    H   1.0     0.215981     0.594074     0.813728  Biso 1.000000     H
    H   1.0     0.716090     0.594196     0.813810  Biso 1.000000     H
    H   1.0     0.247814     0.549712     0.664555  Biso 1.000000     H
    H   1.0     0.747854     0.549807     0.664607  Biso 1.000000     H
    H   1.0     0.431488     0.495246     0.704429  Biso 1.000000     H
    H   1.0     0.931457     0.494871     0.704215  Biso 1.000000     H
    H   1.0     0.328284     0.479169     0.928196  Biso 1.000000     H
    H   1.0     0.828325     0.479058     0.928193  Biso 1.000000     H
    H   1.0     0.179549     0.420311     0.624892  Biso 1.000000     H
    H   1.0     0.679591     0.420262     0.624756  Biso 1.000000     H
    H   1.0     0.115539     0.356698     0.625383  Biso 1.000000     H
    H   1.0     0.615582     0.356687     0.625322  Biso 1.000000     H
    H   1.0     0.139707     0.447264     0.721655  Biso 1.000000     H
    H   1.0     0.639801     0.447257     0.721559  Biso 1.000000     H
    H   1.0     0.041086     0.479053     0.673395  Biso 1.000000     H
    H   1.0     0.541154     0.479076     0.673376  Biso 1.000000     H
    H   1.0     0.117216     0.596877     0.747739  Biso 1.000000     H
    H   1.0     0.617313     0.596874     0.747624  Biso 1.000000     H
    H   1.0     0.071233     0.611369     0.674009  Biso 1.000000     H
    H   1.0     0.571313     0.611351     0.673898  Biso 1.000000     H
    H   1.0     0.150722     0.577176     0.649109  Biso 1.000000     H
    H   1.0     0.650789     0.577109     0.648957  Biso 1.000000     H
    H   1.0     0.046804     0.376035     0.525534  Biso 1.000000     H
    H   1.0     0.546787     0.376023     0.525517  Biso 1.000000     H
    H   1.0     0.163072     0.354033     0.372890  Biso 1.000000     H
    H   1.0     0.662940     0.353965     0.372711  Biso 1.000000     H
    H   1.0     0.080675     0.332962     0.376224  Biso 1.000000     H
    H   1.0     0.580549     0.332942     0.376175  Biso 1.000000     H
    H   1.0     0.241692     0.317947     0.463507  Biso 1.000000     H
    H   1.0     0.741667     0.317779     0.463134  Biso 1.000000     H
    H   1.0     0.049484     0.219616     0.405343  Biso 1.000000     H
    H   1.0     0.549386     0.219654     0.405396  Biso 1.000000     H
    H   1.0     0.081188     0.114713     0.449690  Biso 1.000000     H
    H   1.0     0.581145     0.114730     0.449692  Biso 1.000000     H
    H   1.0     0.264811     0.209049     0.504663  Biso 1.000000     H
    H   1.0     0.764839     0.208860     0.504241  Biso 1.000000     H
    H   1.0     0.161736     0.448902     0.520732  Biso 1.000000     H
    H   1.0     0.661725     0.448792     0.520585  Biso 1.000000     H
    H   1.0     0.012743     0.204247     0.579157  Biso 1.000000     H
    H   1.0     0.512710     0.204357     0.579054  Biso 1.000000     H
    H   1.0     0.448600     0.268408     0.642410  Biso 1.000000     H
    H   1.0     0.948633     0.268337     0.642451  Biso 1.000000     H
    H   1.0     0.472878     0.273888     0.551680  Biso 1.000000     H
    H   1.0     0.972999     0.273796     0.551741  Biso 1.000000     H
    H   1.0     0.374328     0.193777     0.519899  Biso 1.000000     H
    H   1.0     0.874413     0.193740     0.519866  Biso 1.000000     H
    H   1.0     0.450647     0.150127     0.402164  Biso 1.000000     H
    H   1.0     0.950804     0.150016     0.402195  Biso 1.000000     H
    H   1.0     0.404677     0.062022     0.387912  Biso 1.000000     H
    H   1.0     0.904793     0.061937     0.387927  Biso 1.000000     H
    H   1.0     0.484117     0.071488     0.422334  Biso 1.000000     H
    H   1.0     0.984209     0.071394     0.422439  Biso 1.000000     H
    H   1.0     0.379912     0.149370     0.623388  Biso 1.000000     H
    H   1.0     0.879863     0.149354     0.623385  Biso 1.000000     H
    H   1.0     0.496237     0.019252     0.646214  Biso 1.000000     H
    H   1.0     0.996057     0.019119     0.646294  Biso 1.000000     H
    H   1.0     0.413844     0.043770     0.667225  Biso 1.000000     H
    H   1.0     0.913673     0.043752     0.667251  Biso 1.000000     H
    H   1.0     0.074875     0.145551     0.682002  Biso 1.000000     H
    H   1.0     0.574912     0.145811     0.681792  Biso 1.000000     H
    H   1.0     0.382757     0.186082     0.780384  Biso 1.000000     H
    H   1.0     0.882631     0.186126     0.780320  Biso 1.000000     H
    H   1.0     0.414532     0.335156     0.885222  Biso 1.000000     H
    H   1.0     0.914479     0.335163     0.885174  Biso 1.000000     H
    H   1.0     0.098145     0.295409     0.790857  Biso 1.000000     H
    H   1.0     0.598109     0.295701     0.790633  Biso 1.000000     H
    H   1.0     0.494968     0.071812     0.550871  Biso 1.000000     H
    H   1.0     0.994941     0.071783     0.551007  Biso 1.000000     H
    H   1.0     0.096120     0.624765     0.204425  Biso 1.000000     H
    H   1.0     0.596009     0.624993     0.204552  Biso 1.000000     H
    H   1.0     0.032015     0.625423     0.268502  Biso 1.000000     H
    H   1.0     0.531836     0.625604     0.268521  Biso 1.000000     H
    H   1.0     0.056346     0.721593     0.274015  Biso 1.000000     H
    H   1.0     0.556170     0.721795     0.274080  Biso 1.000000     H
    H   1.0     0.457668     0.673645     0.193825  Biso 1.000000     H
    H   1.0     0.957768     0.673498     0.193925  Biso 1.000000     H
    H   1.0     0.034141     0.747600     0.150319  Biso 1.000000     H
    H   1.0     0.534093     0.747775     0.150323  Biso 1.000000     H
    H   1.0     0.488155     0.674111     0.062124  Biso 1.000000     H
    H   1.0     0.988138     0.673973     0.062186  Biso 1.000000     H
    H   1.0     0.067551     0.648888     0.071603  Biso 1.000000     H
    H   1.0     0.567566     0.649081     0.071666  Biso 1.000000     H
    H   1.0     0.463234     0.525810     0.149353  Biso 1.000000     H
    H   1.0     0.963305     0.525664     0.149430  Biso 1.000000     H
    H   1.0     0.079552     0.372860     0.019165  Biso 1.000000     H
    H   1.0     0.579492     0.373007     0.019148  Biso 1.000000     H
    H   1.0    -0.002831     0.376373     0.043746  Biso 1.000000     H
    H   1.0     0.497101     0.376562     0.043722  Biso 1.000000     H
    H   1.0     0.158318     0.463441     0.145573  Biso 1.000000     H
    H   1.0     0.658226     0.463685     0.145592  Biso 1.000000     H
    H   1.0     0.466034     0.405769     0.186191  Biso 1.000000     H
    H   1.0     0.966083     0.405757     0.186263  Biso 1.000000     H
    H   1.0    -0.002131     0.450232     0.335472  Biso 1.000000     H
    H   1.0     0.497841     0.450137     0.335372  Biso 1.000000     H
    H   1.0     0.181523     0.504758     0.295619  Biso 1.000000     H
    H   1.0     0.681449     0.504900     0.295607  Biso 1.000000     H
    H   1.0     0.078323     0.520664     0.071764  Biso 1.000000     H
    H   1.0     0.578290     0.520827     0.071768  Biso 1.000000     H
    H   1.0     0.429612     0.579707     0.375188  Biso 1.000000     H
    H   1.0     0.929553     0.579635     0.375048  Biso 1.000000     H
    H   1.0     0.365615     0.643343     0.374683  Biso 1.000000     H
    H   1.0     0.865523     0.643234     0.374558  Biso 1.000000     H
    H   1.0     0.389812     0.552776     0.278414  Biso 1.000000     H
    H   1.0     0.889718     0.552672     0.278289  Biso 1.000000     H
    H   1.0     0.291159     0.521000     0.326621  Biso 1.000000     H
    H   1.0     0.791114     0.520842     0.326525  Biso 1.000000     H
    H   1.0     0.367304     0.403169     0.252289  Biso 1.000000     H
    H   1.0     0.867293     0.403056     0.252210  Biso 1.000000     H
    H   1.0     0.321299     0.388660     0.325990  Biso 1.000000     H
    H   1.0     0.821316     0.388545     0.325935  Biso 1.000000     H
    H   1.0     0.400780     0.422847     0.350920  Biso 1.000000     H
    H   1.0     0.900791     0.422783     0.350848  Biso 1.000000     H
    H   1.0     0.296815     0.623979     0.474489  Biso 1.000000     H
    H   1.0     0.796778     0.623882     0.474395  Biso 1.000000     H
    H   1.0     0.413028     0.645957     0.627176  Biso 1.000000     H
    H   1.0     0.912970     0.645867     0.627107  Biso 1.000000     H
    H   1.0     0.330636     0.667051     0.623798  Biso 1.000000     H
    H   1.0     0.830577     0.666927     0.623702  Biso 1.000000     H
    H   1.0     0.491727     0.682104     0.536698  Biso 1.000000     H
    H   1.0     0.991640     0.681940     0.536521  Biso 1.000000     H
    H   1.0     0.299464     0.780340     0.594583  Biso 1.000000     H
    H   1.0     0.799429     0.780327     0.594641  Biso 1.000000     H
    H   1.0     0.331202     0.885225     0.550235  Biso 1.000000     H
    H   1.0     0.831174     0.885253     0.550346  Biso 1.000000     H
    H   1.0     0.014798     0.790863     0.495420  Biso 1.000000     H
    H   1.0     0.514881     0.790990     0.495544  Biso 1.000000     H
    H   1.0     0.411751     0.551112     0.479322  Biso 1.000000     H
    H   1.0     0.911719     0.551042     0.479242  Biso 1.000000     H
    H   1.0     0.262728     0.795557     0.420888  Biso 1.000000     H
    H   1.0     0.762851     0.795703     0.420841  Biso 1.000000     H
    H   1.0     0.198615     0.731538     0.357549  Biso 1.000000     H
    H   1.0     0.698799     0.731561     0.357466  Biso 1.000000     H
    H   1.0     0.222911     0.726012     0.448243  Biso 1.000000     H
    H   1.0     0.723105     0.726122     0.448203  Biso 1.000000     H
    H   1.0     0.124362     0.806155     0.480123  Biso 1.000000     H
    H   1.0     0.624472     0.806095     0.479958  Biso 1.000000     H
    H   1.0     0.200721     0.849755     0.597788  Biso 1.000000     H
    H   1.0     0.700765     0.849853     0.597716  Biso 1.000000     H
    H   1.0     0.154736     0.937883     0.612106  Biso 1.000000     H
    H   1.0     0.654733     0.937913     0.611949  Biso 1.000000     H
    H   1.0     0.234164     0.928401     0.577616  Biso 1.000000     H
    H   1.0     0.734174     0.928507     0.577530  Biso 1.000000     H
    H   1.0     0.129894     0.850572     0.376638  Biso 1.000000     H
    H   1.0     0.629966     0.850495     0.376464  Biso 1.000000     H
    H   1.0     0.246146     0.980723     0.353771  Biso 1.000000     H
    H   1.0     0.746188     0.980712     0.353614  Biso 1.000000     H
    H   1.0     0.163755     0.956194     0.332820  Biso 1.000000     H
    H   1.0     0.663802     0.956159     0.332632  Biso 1.000000     H
    H   1.0     0.324867     0.854177     0.318136  Biso 1.000000     H
    H   1.0     0.824962     0.854222     0.317889  Biso 1.000000     H
    H   1.0     0.132682     0.813874     0.219685  Biso 1.000000     H
    H   1.0     0.632713     0.813783     0.219621  Biso 1.000000     H
    H   1.0     0.164479     0.664799     0.114832  Biso 1.000000     H
    H   1.0     0.664510     0.664688     0.114836  Biso 1.000000     H
    H   1.0     0.348086     0.704287     0.209290  Biso 1.000000     H
    H   1.0     0.848176     0.704310     0.209106  Biso 1.000000     H
    H   1.0     0.244954     0.928110     0.449083  Biso 1.000000     H
    H   1.0     0.744993     0.928116     0.448930  Biso 1.000000     H
    C   1.0     0.299344     0.346624     0.769475  Biso 1.000000     C
    C   1.0     0.799336     0.346540     0.769443  Biso 1.000000     C
    C   1.0     0.251645     0.359477     0.838645  Biso 1.000000     C
    C   1.0     0.751636     0.359432     0.838624  Biso 1.000000     C
    C   1.0     0.274332     0.320255     0.891669  Biso 1.000000     C
    C   1.0     0.774290     0.320182     0.891637  Biso 1.000000     C
    C   1.0     0.231869     0.453515     0.894275  Biso 1.000000     C
    C   1.0     0.731905     0.453490     0.894253  Biso 1.000000     C
    C   1.0     0.292002     0.587892     0.935999  Biso 1.000000     C
    C   1.0     0.792119     0.587802     0.935969  Biso 1.000000     C
    C   1.0     0.309136     0.567541     0.846929  Biso 1.000000     C
    C   1.0     0.809213     0.567424     0.846877  Biso 1.000000     C
    C   1.0     0.370528     0.540092     0.815011  Biso 1.000000     C
    C   1.0     0.870566     0.539830     0.814873  Biso 1.000000     C
    C   1.0     0.264361     0.572242     0.792343  Biso 1.000000     C
    C   1.0     0.764440     0.572252     0.792358  Biso 1.000000     C
    C   1.0     0.281437     0.547836     0.709151  Biso 1.000000     C
    C   1.0     0.781480     0.547836     0.709150  Biso 1.000000     C
    C   1.0     0.384277     0.516634     0.731239  Biso 1.000000     C
    C   1.0     0.884277     0.516370     0.731090  Biso 1.000000     C
    C   1.0     0.174948     0.463487     0.952155  Biso 1.000000     C
    C   1.0     0.674957     0.463521     0.952115  Biso 1.000000     C
    C   1.0     0.132839     0.422456     0.653210  Biso 1.000000     C
    C   1.0     0.632893     0.422437     0.653117  Biso 1.000000     C
    C   1.0     0.085022     0.478645     0.640341  Biso 1.000000     C
    C   1.0     0.585070     0.478635     0.640270  Biso 1.000000     C
    C   1.0     0.107498     0.570915     0.679680  Biso 1.000000     C
    C   1.0     0.607572     0.570890     0.679567  Biso 1.000000     C
    C   1.0     0.065330     0.440357     0.546256  Biso 1.000000     C
    C   1.0     0.565324     0.440330     0.546201  Biso 1.000000     C
    C   1.0     0.125570     0.348178     0.411877  Biso 1.000000     C
    C   1.0     0.625476     0.348126     0.411754  Biso 1.000000     C
    C   1.0     0.142622     0.279365     0.432155  Biso 1.000000     C
    C   1.0     0.642558     0.279296     0.431992  Biso 1.000000     C
    C   1.0     0.203959     0.274872     0.459751  Biso 1.000000     C
    C   1.0     0.703931     0.274740     0.459454  Biso 1.000000     C
    C   1.0     0.097827     0.220044     0.427285  Biso 1.000000     C
    C   1.0     0.597757     0.220029     0.427230  Biso 1.000000     C
    C   1.0     0.114836     0.161192     0.451665  Biso 1.000000     C
    C   1.0     0.614795     0.161169     0.451584  Biso 1.000000     C
    C   1.0     0.217643     0.214489     0.483163  Biso 1.000000     C
    C   1.0     0.717644     0.214348     0.482843  Biso 1.000000     C
    C   1.0     0.008314     0.488117     0.536274  Biso 1.000000     C
    C   1.0     0.508317     0.488140     0.536276  Biso 1.000000     C
    C   1.0     0.465997     0.230404     0.576697  Biso 1.000000     C
    C   1.0     0.966057     0.230317     0.576753  Biso 1.000000     C
    C   1.0     0.418271     0.161274     0.520557  Biso 1.000000     C
    C   1.0     0.918326     0.161211     0.520576  Biso 1.000000     C
    C   1.0     0.440882     0.108201     0.428347  Biso 1.000000     C
    C   1.0     0.940990     0.108113     0.428391  Biso 1.000000     C
    C   1.0     0.398540     0.105712     0.559142  Biso 1.000000     C
    C   1.0     0.898521     0.105677     0.559162  Biso 1.000000     C
    C   1.0     0.458768     0.064047     0.651882  Biso 1.000000     C
    C   1.0     0.958641     0.063970     0.651944  Biso 1.000000     C
    C   1.0     0.475858     0.153103     0.720516  Biso 1.000000     C
    C   1.0     0.975776     0.152996     0.720595  Biso 1.000000     C
    C   1.0     0.037159     0.184924     0.725058  Biso 1.000000     C
    C   1.0     0.537201     0.185128     0.724899  Biso 1.000000     C
    C   1.0     0.431098     0.207549     0.779872  Biso 1.000000     C
    C   1.0     0.931008     0.207518     0.779875  Biso 1.000000     C
    C   1.0     0.448153     0.290677     0.838702  Biso 1.000000     C
    C   1.0     0.948101     0.290625     0.838710  Biso 1.000000     C
    C   1.0     0.050930     0.268609     0.785426  Biso 1.000000     C
    C   1.0     0.550930     0.268827     0.785262  Biso 1.000000     C
    C   1.0     0.341612     0.047829     0.511397  Biso 1.000000     C
    C   1.0     0.841612     0.047794     0.511341  Biso 1.000000     C
    C   1.0     0.049420     0.653173     0.230497  Biso 1.000000     C
    C   1.0     0.549288     0.653368     0.230550  Biso 1.000000     C
    C   1.0     0.501619     0.640517     0.161356  Biso 1.000000     C
    C   1.0     0.000000     0.640340     0.161377  Biso 1.000000     C
    C   1.0     0.024333     0.679575     0.108350  Biso 1.000000     C
    C   1.0     0.524317     0.679744     0.108343  Biso 1.000000     C
    C   1.0     0.481872     0.546477     0.105716  Biso 1.000000     C
    C   1.0     0.981918     0.546301     0.105761  Biso 1.000000     C
    C   1.0     0.042101     0.411938     0.063997  Biso 1.000000     C
    C   1.0     0.542044     0.412101     0.063975  Biso 1.000000     C
    C   1.0     0.059225     0.432314     0.153072  Biso 1.000000     C
    C   1.0     0.559155     0.432457     0.153051  Biso 1.000000     C
    C   1.0     0.120602     0.459809     0.185003  Biso 1.000000     C
    C   1.0     0.620520     0.459998     0.185002  Biso 1.000000     C
    C   1.0     0.014444     0.427622     0.207659  Biso 1.000000     C
    C   1.0     0.514392     0.427674     0.207605  Biso 1.000000     C
    C   1.0     0.031497     0.452090     0.290870  Biso 1.000000     C
    C   1.0     0.531457     0.452069     0.290796  Biso 1.000000     C
    C   1.0     0.134327     0.483325     0.268793  Biso 1.000000     C
    C   1.0     0.634258     0.483442     0.268771  Biso 1.000000     C
    C   1.0     0.424939     0.536455     0.047844  Biso 1.000000     C
    C   1.0     0.924971     0.536340     0.047927  Biso 1.000000     C
    C   1.0     0.382914     0.577579     0.346855  Biso 1.000000     C
    C   1.0     0.882840     0.577479     0.346735  Biso 1.000000     C
    C   1.0     0.335080     0.521394     0.359692  Biso 1.000000     C
    C   1.0     0.835043     0.521272     0.359599  Biso 1.000000     C
    C   1.0     0.357565     0.429120     0.320343  Biso 1.000000     C
    C   1.0     0.857563     0.429014     0.320267  Biso 1.000000     C
    C   1.0     0.315353     0.559658     0.453767  Biso 1.000000     C
    C   1.0     0.815313     0.559560     0.453677  Biso 1.000000     C
    C   1.0     0.375548     0.651829     0.588173  Biso 1.000000     C
    C   1.0     0.875495     0.651724     0.588090  Biso 1.000000     C
    C   1.0     0.392627     0.720638     0.567907  Biso 1.000000     C
    C   1.0     0.892566     0.720553     0.567851  Biso 1.000000     C
    C   1.0     0.453991     0.725159     0.540399  Biso 1.000000     C
    C   1.0     0.953915     0.725032     0.540276  Biso 1.000000     C
    C   1.0     0.347826     0.779930     0.572703  Biso 1.000000     C
    C   1.0     0.847781     0.779892     0.572719  Biso 1.000000     C
    C   1.0     0.364853     0.838770     0.548322  Biso 1.000000     C
    C   1.0     0.864814     0.838759     0.548374  Biso 1.000000     C
    C   1.0     0.467693     0.785533     0.516983  Biso 1.000000     C
    C   1.0     0.967625     0.785431     0.516899  Biso 1.000000     C
    C   1.0     0.258337     0.511882     0.463717  Biso 1.000000     C
    C   1.0     0.758311     0.511779     0.463646  Biso 1.000000     C
    C   1.0     0.216016     0.769521     0.423257  Biso 1.000000     C
    C   1.0     0.716164     0.769598     0.423185  Biso 1.000000     C
    C   1.0     0.168291     0.838659     0.479437  Biso 1.000000     C
    C   1.0     0.668373     0.838666     0.479307  Biso 1.000000     C
    C   1.0     0.190934     0.891699     0.571630  Biso 1.000000     C
    C   1.0     0.690965     0.891760     0.571519  Biso 1.000000     C
    C   1.0     0.148527     0.894232     0.440874  Biso 1.000000     C
    C   1.0     0.648577     0.894192     0.440701  Biso 1.000000     C
    C   1.0     0.208699     0.935919     0.348124  Biso 1.000000     C
    C   1.0     0.708745     0.935898     0.347955  Biso 1.000000     C
    C   1.0     0.225799     0.846871     0.279474  Biso 1.000000     C
    C   1.0     0.725860     0.846850     0.279321  Biso 1.000000     C
    C   1.0     0.287155     0.814854     0.275054  Biso 1.000000     C
    C   1.0     0.787235     0.814871     0.274859  Biso 1.000000     C
    C   1.0     0.181036     0.792414     0.220159  Biso 1.000000     C
    C   1.0     0.681080     0.792350     0.220070  Biso 1.000000     C
    C   1.0     0.198100     0.709285     0.161325  Biso 1.000000     C
    C   1.0     0.698143     0.709210     0.161275  Biso 1.000000     C
    C   1.0     0.300896     0.731154     0.214692  Biso 1.000000     C
    C   1.0     0.800975     0.731155     0.214533  Biso 1.000000     C
    C   1.0     0.091606     0.952131     0.488667  Biso 1.000000     C
    C   1.0     0.591633     0.952056     0.488479  Biso 1.000000     C
    N   1.0     0.285153     0.510587     0.944439  Biso 1.000000     N
    N   1.0     0.785208     0.510513     0.944425  Biso 1.000000     N
    N   1.0     0.340296     0.519547     0.678178  Biso 1.000000     N
    N   1.0     0.840299     0.519407     0.678093  Biso 1.000000     N
    N   1.0     0.118624     0.433743     0.489272  Biso 1.000000     N
    N   1.0     0.618594     0.433686     0.489171  Biso 1.000000     N
    N   1.0     0.173647     0.158476     0.480079  Biso 1.000000     N
    N   1.0     0.673642     0.158388     0.479864  Biso 1.000000     N
    N   1.0     0.451856     0.055590     0.566133  Biso 1.000000     N
    N   1.0     0.951808     0.055545     0.566201  Biso 1.000000     N
    N   1.0     0.006956     0.321599     0.841407  Biso 1.000000     N
    N   1.0     0.506965     0.321744     0.841319  Biso 1.000000     N
    N   1.0     0.035198     0.489239     0.055559  Biso 1.000000     N
    N   1.0     0.535165     0.489407     0.055543  Biso 1.000000     N
    N   1.0     0.090339     0.480427     0.321857  Biso 1.000000     N
    N   1.0     0.590286     0.480455     0.321803  Biso 1.000000     N
    N   1.0     0.368629     0.566270     0.510769  Biso 1.000000     N
    N   1.0     0.868592     0.566171     0.510676  Biso 1.000000     N
    N   1.0     0.423688     0.841508     0.519983  Biso 1.000000     N
    N   1.0     0.923636     0.841460     0.519980  Biso 1.000000     N
    N   1.0     0.201831     0.944352     0.433868  Biso 1.000000     N
    N   1.0     0.701865     0.944334     0.433699  Biso 1.000000     N
    N   1.0     0.256929     0.678231     0.158667  Biso 1.000000     N
    N   1.0     0.756987     0.678186     0.158587  Biso 1.000000     N
    O   1.0     0.127939     0.415555     0.915057  Biso 1.000000     O
    O   1.0     0.627930     0.415635     0.914997  Biso 1.000000     O
    O   1.0     0.177587     0.518646     0.031307  Biso 1.000000     O
    O   1.0     0.677601     0.518642     0.031279  Biso 1.000000     O
    O   1.0     0.461275     0.498536     0.584059  Biso 1.000000     O
    O   1.0     0.961252     0.498454     0.584000  Biso 1.000000     O
    O   1.0     0.010942     0.512528     0.481379  Biso 1.000000     O
    O   1.0     0.510941     0.512563     0.481389  Biso 1.000000     O
    O   1.0     0.294576     0.084922     0.500549  Biso 1.000000     O
    O   1.0     0.794603     0.084869     0.500407  Biso 1.000000     O
    O   1.0     0.344279     0.968696     0.487460  Biso 1.000000     O
    O   1.0     0.844276     0.968657     0.487396  Biso 1.000000     O
    O   1.0     0.377913     0.584366     0.084955  Biso 1.000000     O
    O   1.0     0.877946     0.584231     0.085086  Biso 1.000000     O
    O   1.0     0.427596     0.481323     0.968685  Biso 1.000000     O
    O   1.0     0.927617     0.481274     0.968746  Biso 1.000000     O
    O   1.0     0.211279     0.501554     0.415988  Biso 1.000000     O
    O   1.0     0.711274     0.501335     0.415845  Biso 1.000000     O
    O   1.0     0.260949     0.487489     0.518627  Biso 1.000000     O
    O   1.0     0.760941     0.487377     0.518549  Biso 1.000000     O
    O   1.0     0.044585     0.915065     0.499574  Biso 1.000000     O
    O   1.0     0.544618     0.914946     0.499337  Biso 1.000000     O
    O   1.0     0.094276     0.031265     0.512597  Biso 1.000000     O
    O   1.0     0.594293     0.031212     0.512499  Biso 1.000000     O
   Zn   1.0     0.277847     0.550603     0.075709  Biso 1.000000    Zn
   Zn   1.0     0.777860     0.550520     0.075700  Biso 1.000000    Zn
   Zn   1.0     0.111197     0.525314     0.449604  Biso 1.000000    Zn
   Zn   1.0     0.611193     0.525260     0.449515  Biso 1.000000    Zn
   Zn   1.0     0.444527     0.924359     0.475064  Biso 1.000000    Zn
   Zn   1.0     0.944518     0.924334     0.475111  Biso 1.000000    Zn
   Zn   1.0     0.027853     0.449226     0.924312  Biso 1.000000    Zn
   Zn   1.0     0.527853     0.449382     0.924268  Biso 1.000000    Zn
   Zn   1.0     0.361194     0.474711     0.550444  Biso 1.000000    Zn
   Zn   1.0     0.861187     0.474590     0.550341  Biso 1.000000    Zn
   Zn   1.0     0.194514     0.075578     0.524951  Biso 1.000000    Zn
   Zn   1.0     0.694521     0.075534     0.524765  Biso 1.000000    Zn
   Br   1.0     0.291616     0.459214     0.133920  Biso 1.000000    Br
   Br   1.0     0.791506     0.459079     0.133867  Biso 1.000000    Br
   Br   1.0     0.124622     0.674790     0.541267  Biso 1.000000    Br
   Br   1.0     0.624719     0.674735     0.541102  Biso 1.000000    Br
   Br   1.0     0.458123     0.866093     0.325469  Biso 1.000000    Br
   Br   1.0     0.958248     0.865968     0.325523  Biso 1.000000    Br
   Br   1.0     0.041560     0.540600     0.866065  Biso 1.000000    Br
   Br   1.0     0.541571     0.540769     0.866046  Biso 1.000000    Br
   Br   1.0     0.374671     0.325237     0.458775  Biso 1.000000    Br
   Br   1.0     0.874692     0.325115     0.458727  Biso 1.000000    Br
   Br   1.0     0.208185     0.133870     0.674535  Biso 1.000000    Br
   Br   1.0     0.708183     0.133886     0.674366  Biso 1.000000    Br
