#======================================================================

# CRYSTAL DATA

#----------------------------------------------------------------------

data_VESTA_phase_1


_pd_phase_name                         MOF
_cell_length_a                         15.41100
_cell_length_b                         15.42000
_cell_length_c                         15.41100
_cell_angle_alpha                      60.01500
_cell_angle_beta                       60.03500
_cell_angle_gamma                      60.04800
_symmetry_space_group_name_H-M         "P 1"
_symmetry_Int_Tables_number            1

loop_
_symmetry_equiv_pos_as_xyz
   "x, y, z"

loop_
   _atom_site_label
   _atom_site_occupancy
   _atom_site_fract_x
   _atom_site_fract_y
   _atom_site_fract_z
   _atom_site_adp_type
   _atom_site_B_iso_or_equiv
   _atom_site_type_symbol
    H   1.0    -0.000135     0.332818     0.667497  Biso 1.000000     H
    H   1.0     0.332688    -0.000082    -0.000114  Biso 1.000000     H
    H   1.0     0.667329     0.000080     0.000115  Biso 1.000000     H
    H   1.0     0.000142     0.667181     0.332527  Biso 1.000000     H
    H   1.0     0.000023     0.667140     0.000347  Biso 1.000000     H
    H   1.0     0.332732     0.000124     0.667405  Biso 1.000000     H
    H   1.0     0.667291    -0.000131     0.332621  Biso 1.000000     H
    H   1.0    -0.000021     0.332866    -0.000348  Biso 1.000000     H
    H   1.0     0.000139    -0.000202     0.332624  Biso 1.000000     H
    H   1.0     0.332663     0.667161     0.000256  Biso 1.000000     H
    H   1.0     0.667356     0.332845    -0.000256  Biso 1.000000     H
    H   1.0    -0.000133     0.000195     0.667402  Biso 1.000000     H
    C   1.0     0.053414     0.400033     0.493278  Biso 1.000000     C
    C   1.0     0.400029     0.053384     0.053345  Biso 1.000000     C
    C   1.0     0.493188     0.053419     0.053391  Biso 1.000000     C
    C   1.0     0.053472     0.493121     0.400067  Biso 1.000000     C
    C   1.0     0.053418     0.493083     0.053482  Biso 1.000000     C
    C   1.0     0.400029     0.053505     0.493201  Biso 1.000000     C
    C   1.0     0.493154     0.053418     0.400028  Biso 1.000000     C
    C   1.0     0.053413     0.400018     0.053336  Biso 1.000000     C
    C   1.0     0.053453     0.053351     0.400012  Biso 1.000000     C
    C   1.0     0.400066     0.493101     0.053514  Biso 1.000000     C
    C   1.0     0.493204     0.400040     0.053385  Biso 1.000000     C
    C   1.0     0.053380     0.053452     0.493197  Biso 1.000000     C
    C   1.0     0.599996     0.946494     0.506825  Biso 1.000000     C
    C   1.0     0.946613     0.599980     0.946689  Biso 1.000000     C
    C   1.0     0.946608     0.506916     0.946542  Biso 1.000000     C
    C   1.0     0.506871     0.946582     0.599998  Biso 1.000000     C
    C   1.0     0.506838     0.946577     0.946637  Biso 1.000000     C
    C   1.0     0.946609     0.599966     0.506747  Biso 1.000000     C
    C   1.0     0.946553     0.506878     0.599958  Biso 1.000000     C
    C   1.0     0.599997     0.946615     0.946680  Biso 1.000000     C
    C   1.0     0.946572     0.946649     0.600013  Biso 1.000000     C
    C   1.0     0.506822     0.599959     0.946640  Biso 1.000000     C
    C   1.0     0.599959     0.506897     0.946511  Biso 1.000000     C
    C   1.0     0.946646     0.946548     0.506828  Biso 1.000000     C
    C   1.0    -0.000067     0.403471     0.596696  Biso 1.000000     C
    C   1.0     0.403404    -0.000038    -0.000061  Biso 1.000000     C
    C   1.0     0.596613     0.000036     0.000063  Biso 1.000000     C
    C   1.0     0.000074     0.596529     0.403329  Biso 1.000000     C
    C   1.0    -0.000018     0.596510     0.000206  Biso 1.000000     C
    C   1.0     0.403432     0.000068     0.596652  Biso 1.000000     C
    C   1.0     0.596592    -0.000075     0.403374  Biso 1.000000     C
    C   1.0     0.000020     0.403496    -0.000207  Biso 1.000000     C
    C   1.0     0.000094    -0.000127     0.403372  Biso 1.000000     C
    C   1.0     0.403400     0.596517     0.000143  Biso 1.000000     C
    C   1.0     0.596618     0.403489    -0.000144  Biso 1.000000     C
    C   1.0    -0.000088     0.000120     0.596653  Biso 1.000000     C
    N   1.0     0.113884     0.314544     0.457887  Biso 1.000000     N
    N   1.0     0.314531     0.113860     0.113762  Biso 1.000000     N
    N   1.0     0.457765     0.113913     0.113829  Biso 1.000000     N
    N   1.0     0.113969     0.457672     0.314580  Biso 1.000000     N
    N   1.0     0.113916     0.457589     0.114006  Biso 1.000000     N
    N   1.0     0.314506     0.114049     0.457758  Biso 1.000000     N
    N   1.0     0.457698     0.113936     0.314497  Biso 1.000000     N
    N   1.0     0.113920     0.314497     0.113780  Biso 1.000000     N
    N   1.0     0.113963     0.113809     0.314482  Biso 1.000000     N
    N   1.0     0.314567     0.457615     0.114059  Biso 1.000000     N
    N   1.0     0.457763     0.314529     0.113875  Biso 1.000000     N
    N   1.0     0.113851     0.113962     0.457757  Biso 1.000000     N
    N   1.0     0.685519     0.885951     0.542267  Biso 1.000000     N
    N   1.0     0.886106     0.685502     0.886244  Biso 1.000000     N
    N   1.0     0.886110     0.542410     0.886018  Biso 1.000000     N
    N   1.0     0.542328     0.886064     0.685528  Biso 1.000000     N
    N   1.0     0.542261     0.886085     0.886197  Biso 1.000000     N
    N   1.0     0.886142     0.685456     0.542138  Biso 1.000000     N
    N   1.0     0.886056     0.542327     0.685445  Biso 1.000000     N
    N   1.0     0.685495     0.886137     0.886264  Biso 1.000000     N
    N   1.0     0.886063     0.886190     0.685544  Biso 1.000000     N
    N   1.0     0.542263     0.685469     0.886150  Biso 1.000000     N
    N   1.0     0.685459     0.542383     0.885966  Biso 1.000000     N
    N   1.0     0.886175     0.886037     0.542268  Biso 1.000000     N
    N   1.0     0.148350     0.351716     0.351841  Biso 1.000000     N
    N   1.0     0.351762     0.148273     0.148194  Biso 1.000000     N
    N   1.0     0.148323     0.351637     0.148309  Biso 1.000000     N
    N   1.0     0.351698     0.148415     0.351719  Biso 1.000000     N
    N   1.0     0.148307     0.148297     0.351718  Biso 1.000000     N
    N   1.0     0.351760     0.351663     0.148380  Biso 1.000000     N
    N   1.0     0.648327     0.851584     0.648306  Biso 1.000000     N
    N   1.0     0.851703     0.648361     0.851716  Biso 1.000000     N
    N   1.0     0.648264     0.851726     0.851832  Biso 1.000000     N
    N   1.0     0.851675     0.648283     0.648183  Biso 1.000000     N
    N   1.0     0.851718     0.851702     0.648307  Biso 1.000000     N
    N   1.0     0.648266     0.648336     0.851645  Biso 1.000000     N
   Cl   1.0     0.097203     0.097122     0.708560  Biso 1.000000    Cl
   Cl   1.0     0.096807     0.097548     0.097040  Biso 1.000000    Cl
   Cl   1.0     0.708429     0.097610     0.097054  Biso 1.000000    Cl
   Cl   1.0     0.097524     0.708203     0.096839  Biso 1.000000    Cl
   Cl   1.0     0.902822     0.902878     0.291465  Biso 1.000000    Cl
   Cl   1.0     0.903219     0.902451     0.902985  Biso 1.000000    Cl
   Cl   1.0     0.902503     0.291796     0.903185  Biso 1.000000    Cl
   Cl   1.0     0.291597     0.902389     0.902972  Biso 1.000000    Cl
   Zn   1.0     0.154149     0.154248     0.537624  Biso 1.000000    Zn
   Zn   1.0     0.154143     0.154191     0.154046  Biso 1.000000    Zn
   Zn   1.0     0.537550     0.154275     0.154112  Biso 1.000000    Zn
   Zn   1.0     0.154279     0.537391     0.154223  Biso 1.000000    Zn
   Zn   1.0     0.845876     0.845752     0.462402  Biso 1.000000    Zn
   Zn   1.0     0.845883     0.845807     0.845979  Biso 1.000000    Zn
   Zn   1.0     0.845747     0.462608     0.845802  Biso 1.000000    Zn
   Zn   1.0     0.462476     0.845723     0.845914  Biso 1.000000    Zn
   Zn   1.0     0.250029     0.249989     0.250022  Biso 1.000000    Zn
   Zn   1.0     0.749997     0.750010     0.750003  Biso 1.000000    Zn
