#======================================================================

# CRYSTAL DATA

#----------------------------------------------------------------------

data_VESTA_phase_1


_pd_phase_name                         MOF
_cell_length_a                         22.52200
_cell_length_b                         16.30800
_cell_length_c                         14.51100
_cell_angle_alpha                      89.98900
_cell_angle_beta                       95.20800
_cell_angle_gamma                      89.97900
_symmetry_space_group_name_H-M         "P 1"
_symmetry_Int_Tables_number            1

loop_
_symmetry_equiv_pos_as_xyz
   "x, y, z"

loop_
   _atom_site_label
   _atom_site_occupancy
   _atom_site_fract_x
   _atom_site_fract_y
   _atom_site_fract_z
   _atom_site_adp_type
   _atom_site_B_iso_or_equiv
   _atom_site_type_symbol
    H   1.0     0.117231     0.602743     0.264061  Biso 1.000000     H
    H   1.0     0.617216     0.602699     0.264056  Biso 1.000000     H
    H   1.0     0.225985     0.812107     0.291731  Biso 1.000000     H
    H   1.0     0.725959     0.812071     0.291789  Biso 1.000000     H
    H   1.0     0.213772     0.840581     0.466304  Biso 1.000000     H
    H   1.0     0.713739     0.840492     0.466386  Biso 1.000000     H
    H   1.0     0.180140     0.761795     0.527528  Biso 1.000000     H
    H   1.0     0.680073     0.761705     0.527562  Biso 1.000000     H
    H   1.0     0.080678     0.844672     0.335089  Biso 1.000000     H
    H   1.0     0.580649     0.844617     0.335118  Biso 1.000000     H
    H   1.0    -0.000763     0.939735     0.351353  Biso 1.000000     H
    H   1.0     0.499225     0.939716     0.351363  Biso 1.000000     H
    H   1.0     0.064273     0.980004     0.637378  Biso 1.000000     H
    H   1.0     0.564255     0.979988     0.637390  Biso 1.000000     H
    H   1.0     0.145153     0.884487     0.620246  Biso 1.000000     H
    H   1.0     0.645116     0.884433     0.620278  Biso 1.000000     H
    H   1.0     0.412476     0.419624     0.510018  Biso 1.000000     H
    H   1.0     0.912489     0.419592     0.510013  Biso 1.000000     H
    H   1.0     0.355767     0.396835     0.362008  Biso 1.000000     H
    H   1.0     0.855777     0.396809     0.362006  Biso 1.000000     H
    H   1.0    -0.011818     0.527279     0.223003  Biso 1.000000     H
    H   1.0     0.488193     0.527247     0.223000  Biso 1.000000     H
    H   1.0     0.044879     0.552750     0.371540  Biso 1.000000     H
    H   1.0     0.544889     0.552720     0.371538  Biso 1.000000     H
    H   1.0     0.407239     0.438055     0.133340  Biso 1.000000     H
    H   1.0     0.907231     0.438062     0.133340  Biso 1.000000     H
    H   1.0     0.346996     0.401830     0.192975  Biso 1.000000     H
    H   1.0     0.846991     0.401837     0.192979  Biso 1.000000     H
    H   1.0     0.252288     0.492075     0.150738  Biso 1.000000     H
    H   1.0     0.752282     0.492078     0.150748  Biso 1.000000     H
    H   1.0     0.339727     0.717352     0.123747  Biso 1.000000     H
    H   1.0     0.839716     0.717360     0.123763  Biso 1.000000     H
    H   1.0     0.159417     0.913766     0.982969  Biso 1.000000     H
    H   1.0     0.659410     0.913791     0.983031  Biso 1.000000     H
    H   1.0     0.132508     0.102651     0.735819  Biso 1.000000     H
    H   1.0     0.632520     0.102662     0.735830  Biso 1.000000     H
    H   1.0     0.023950     0.312328     0.708251  Biso 1.000000     H
    H   1.0     0.523949     0.312324     0.708243  Biso 1.000000     H
    H   1.0     0.036170     0.340827     0.533638  Biso 1.000000     H
    H   1.0     0.536192     0.340848     0.533653  Biso 1.000000     H
    H   1.0     0.069792     0.262004     0.472448  Biso 1.000000     H
    H   1.0     0.569803     0.262022     0.472452  Biso 1.000000     H
    H   1.0     0.169375     0.344522     0.664783  Biso 1.000000     H
    H   1.0     0.669329     0.344637     0.664844  Biso 1.000000     H
    H   1.0     0.250826     0.439490     0.648507  Biso 1.000000     H
    H   1.0     0.750780     0.439611     0.648582  Biso 1.000000     H
    H   1.0     0.185577     0.480304     0.362643  Biso 1.000000     H
    H   1.0     0.685684     0.480167     0.362604  Biso 1.000000     H
    H   1.0     0.104701     0.384869     0.379778  Biso 1.000000     H
    H   1.0     0.604794     0.384755     0.379740  Biso 1.000000     H
    H   1.0     0.337536     0.919670     0.489929  Biso 1.000000     H
    H   1.0     0.837590     0.919640     0.490040  Biso 1.000000     H
    H   1.0     0.394236     0.896858     0.637965  Biso 1.000000     H
    H   1.0     0.894291     0.896837     0.638079  Biso 1.000000     H
    H   1.0     0.261703     0.027233     0.776867  Biso 1.000000     H
    H   1.0     0.761702     0.027079     0.776995  Biso 1.000000     H
    H   1.0     0.205026     0.052729     0.628323  Biso 1.000000     H
    H   1.0     0.705012     0.052547     0.628450  Biso 1.000000     H
    H   1.0     0.342703     0.938116     0.866608  Biso 1.000000     H
    H   1.0     0.842743     0.938054     0.866732  Biso 1.000000     H
    H   1.0     0.402955     0.901796     0.807036  Biso 1.000000     H
    H   1.0     0.902999     0.901749     0.807157  Biso 1.000000     H
    H   1.0     0.497650     0.991930     0.849549  Biso 1.000000     H
    H   1.0     0.997677     0.991924     0.849614  Biso 1.000000     H
    H   1.0     0.410203     0.217357     0.875859  Biso 1.000000     H
    H   1.0     0.910190     0.217325     0.875902  Biso 1.000000     H
    H   1.0     0.090565     0.413703     0.017315  Biso 1.000000     H
    H   1.0     0.590563     0.413703     0.017295  Biso 1.000000     H
    H   1.0     0.382757     0.397322     0.735892  Biso 1.000000     H
    H   1.0     0.882743     0.397277     0.735887  Biso 1.000000     H
    H   1.0     0.274015     0.187949     0.708146  Biso 1.000000     H
    H   1.0     0.773988     0.187915     0.708202  Biso 1.000000     H
    H   1.0     0.286237     0.159535     0.533547  Biso 1.000000     H
    H   1.0     0.786205     0.159445     0.533629  Biso 1.000000     H
    H   1.0     0.319905     0.238325     0.472377  Biso 1.000000     H
    H   1.0     0.819838     0.238234     0.472411  Biso 1.000000     H
    H   1.0     0.419326     0.155409     0.664821  Biso 1.000000     H
    H   1.0     0.919295     0.155349     0.664852  Biso 1.000000     H
    H   1.0     0.500750     0.060311     0.648576  Biso 1.000000     H
    H   1.0     0.000000     0.060286     0.648588  Biso 1.000000     H
    H   1.0     0.435725     0.020045     0.362546  Biso 1.000000     H
    H   1.0     0.935711     0.020033     0.362556  Biso 1.000000     H
    H   1.0     0.354863     0.115598     0.379658  Biso 1.000000     H
    H   1.0     0.854830     0.115548     0.379688  Biso 1.000000     H
    H   1.0     0.087495     0.580434     0.489943  Biso 1.000000     H
    H   1.0     0.587505     0.580404     0.489936  Biso 1.000000     H
    H   1.0     0.144208     0.603214     0.637950  Biso 1.000000     H
    H   1.0     0.644215     0.603191     0.637946  Biso 1.000000     H
    H   1.0     0.511781     0.472797     0.776956  Biso 1.000000     H
    H   1.0     0.000000     0.472772     0.776956  Biso 1.000000     H
    H   1.0     0.455083     0.447332     0.628420  Biso 1.000000     H
    H   1.0     0.955092     0.447308     0.628419  Biso 1.000000     H
    H   1.0     0.092752     0.561969     0.866617  Biso 1.000000     H
    H   1.0     0.592743     0.561975     0.866615  Biso 1.000000     H
    H   1.0     0.152992     0.598192     0.806978  Biso 1.000000     H
    H   1.0     0.652986     0.598197     0.806979  Biso 1.000000     H
    H   1.0     0.247699     0.507941     0.849204  Biso 1.000000     H
    H   1.0     0.747692     0.507943     0.849212  Biso 1.000000     H
    H   1.0     0.160255     0.282666     0.876179  Biso 1.000000     H
    H   1.0     0.660244     0.282673     0.876194  Biso 1.000000     H
    H   1.0     0.340567     0.086227     0.016910  Biso 1.000000     H
    H   1.0     0.840560     0.086252     0.016971  Biso 1.000000     H
    H   1.0     0.367454     0.897362     0.264106  Biso 1.000000     H
    H   1.0     0.867466     0.897374     0.264118  Biso 1.000000     H
    H   1.0     0.476028     0.687704     0.291712  Biso 1.000000     H
    H   1.0     0.976027     0.687702     0.291704  Biso 1.000000     H
    H   1.0     0.463789     0.659197     0.466307  Biso 1.000000     H
    H   1.0     0.963810     0.659218     0.466322  Biso 1.000000     H
    H   1.0     0.430174     0.738023     0.527500  Biso 1.000000     H
    H   1.0     0.930184     0.738042     0.527503  Biso 1.000000     H
    H   1.0     0.330650     0.655405     0.335111  Biso 1.000000     H
    H   1.0     0.830604     0.655520     0.335172  Biso 1.000000     H
    H   1.0     0.249200     0.560431     0.351373  Biso 1.000000     H
    H   1.0     0.749153     0.560552     0.351448  Biso 1.000000     H
    H   1.0     0.314299     0.519869     0.637349  Biso 1.000000     H
    H   1.0     0.814406     0.519733     0.637310  Biso 1.000000     H
    H   1.0     0.395189     0.615283     0.620212  Biso 1.000000     H
    H   1.0     0.895281     0.615169     0.620174  Biso 1.000000     H
    H   1.0     0.162382     0.080394     0.509890  Biso 1.000000     H
    H   1.0     0.662435     0.080364     0.510002  Biso 1.000000     H
    H   1.0     0.105679     0.103194     0.361851  Biso 1.000000     H
    H   1.0     0.605734     0.103172     0.361966  Biso 1.000000     H
    H   1.0     0.238268     0.972948     0.222936  Biso 1.000000     H
    H   1.0     0.738267     0.972795     0.223064  Biso 1.000000     H
    H   1.0     0.294958     0.947484     0.371481  Biso 1.000000     H
    H   1.0     0.794945     0.947303     0.371607  Biso 1.000000     H
    H   1.0     0.157224     0.061972     0.133198  Biso 1.000000     H
    H   1.0     0.657264     0.061911     0.133322  Biso 1.000000     H
    H   1.0     0.096969     0.098274     0.192773  Biso 1.000000     H
    H   1.0     0.597011     0.098228     0.192895  Biso 1.000000     H
    H   1.0     0.002293     0.008094     0.150320  Biso 1.000000     H
    H   1.0     0.502319     0.008088     0.150385  Biso 1.000000     H
    H   1.0     0.089785     0.782697     0.124037  Biso 1.000000     H
    H   1.0     0.589773     0.782665     0.124081  Biso 1.000000     H
    H   1.0     0.409410     0.586315     0.982648  Biso 1.000000     H
    H   1.0     0.909409     0.586313     0.982630  Biso 1.000000     H
    C   1.0     0.139461     0.656636     0.293977  Biso 1.000000     C
    C   1.0     0.639440     0.656591     0.293985  Biso 1.000000     C
    C   1.0     0.195549     0.763138     0.306048  Biso 1.000000     C
    C   1.0     0.695524     0.763097     0.306090  Biso 1.000000     C
    C   1.0     0.173273     0.803163     0.467736  Biso 1.000000     C
    C   1.0     0.673230     0.803089     0.467781  Biso 1.000000     C
    C   1.0     0.119634     0.857777     0.476010  Biso 1.000000     C
    C   1.0     0.619600     0.857724     0.476041  Biso 1.000000     C
    C   1.0     0.077447     0.874329     0.401706  Biso 1.000000     C
    C   1.0     0.577420     0.874284     0.401731  Biso 1.000000     C
    C   1.0     0.030902     0.929111     0.411371  Biso 1.000000     C
    C   1.0     0.530886     0.929086     0.411384  Biso 1.000000     C
    C   1.0     0.024476     0.970088     0.495314  Biso 1.000000     C
    C   1.0     0.524466     0.970076     0.495321  Biso 1.000000     C
    C   1.0     0.066759     0.951381     0.570065  Biso 1.000000     C
    C   1.0     0.566739     0.951356     0.570080  Biso 1.000000     C
    C   1.0     0.113118     0.896405     0.560706  Biso 1.000000     C
    C   1.0     0.613087     0.896361     0.560732  Biso 1.000000     C
    C   1.0     0.483274     0.490618     0.454678  Biso 1.000000     C
    C   1.0     0.983273     0.490618     0.454679  Biso 1.000000     C
    C   1.0     0.430033     0.444754     0.448566  Biso 1.000000     C
    C   1.0     0.930038     0.444740     0.448565  Biso 1.000000     C
    C   1.0     0.397598     0.430839     0.363648  Biso 1.000000     C
    C   1.0     0.897602     0.430827     0.363647  Biso 1.000000     C
    C   1.0     0.417229     0.460916     0.281403  Biso 1.000000     C
    C   1.0     0.917224     0.460922     0.281405  Biso 1.000000     C
    C   1.0     0.471398     0.503665     0.285929  Biso 1.000000     C
    C   1.0     0.971388     0.503685     0.285931  Biso 1.000000     C
    C   1.0     0.003440     0.518371     0.370888  Biso 1.000000     C
    C   1.0     0.503446     0.518351     0.370886  Biso 1.000000     C
    C   1.0     0.379827     0.451256     0.190438  Biso 1.000000     C
    C   1.0     0.879821     0.451263     0.190441  Biso 1.000000     C
    C   1.0     0.286785     0.538343     0.148688  Biso 1.000000     C
    C   1.0     0.786778     0.538348     0.148700  Biso 1.000000     C
    C   1.0     0.332616     0.652533     0.135165  Biso 1.000000     C
    C   1.0     0.832605     0.652540     0.135180  Biso 1.000000     C
    C   1.0     0.248067     0.837816     0.083766  Biso 1.000000     C
    C   1.0     0.748068     0.837856     0.083853  Biso 1.000000     C
    C   1.0     0.251461     0.919296     0.035638  Biso 1.000000     C
    C   1.0     0.751455     0.919324     0.035700  Biso 1.000000     C
    C   1.0     0.303377     0.968118     0.044486  Biso 1.000000     C
    C   1.0     0.803372     0.968143     0.044539  Biso 1.000000     C
    C   1.0     0.199267     0.951749     0.989852  Biso 1.000000     C
    C   1.0     0.699261     0.951772     0.989911  Biso 1.000000     C
    C   1.0     0.363114     0.936190     0.084256  Biso 1.000000     C
    C   1.0     0.863110     0.936202     0.084286  Biso 1.000000     C
    C   1.0     0.110331     0.156630     0.705938  Biso 1.000000     C
    C   1.0     0.610343     0.156639     0.705944  Biso 1.000000     C
    C   1.0     0.054347     0.263294     0.693929  Biso 1.000000     C
    C   1.0     0.554352     0.263295     0.693926  Biso 1.000000     C
    C   1.0     0.076662     0.303350     0.532234  Biso 1.000000     C
    C   1.0     0.576679     0.303363     0.532242  Biso 1.000000     C
    C   1.0     0.130313     0.357896     0.523947  Biso 1.000000     C
    C   1.0     0.630336     0.357898     0.523958  Biso 1.000000     C
    C   1.0     0.172559     0.374285     0.598200  Biso 1.000000     C
    C   1.0     0.672547     0.374346     0.598240  Biso 1.000000     C
    C   1.0     0.219113     0.429011     0.588525  Biso 1.000000     C
    C   1.0     0.719103     0.429070     0.588570  Biso 1.000000     C
    C   1.0     0.225484     0.470121     0.504628  Biso 1.000000     C
    C   1.0     0.725514     0.470113     0.504644  Biso 1.000000     C
    C   1.0     0.183144     0.451570     0.429921  Biso 1.000000     C
    C   1.0     0.683213     0.451497     0.429908  Biso 1.000000     C
    C   1.0     0.136778     0.396647     0.439288  Biso 1.000000     C
    C   1.0     0.636841     0.396583     0.439274  Biso 1.000000     C
    C   1.0     0.266689     0.990663     0.545213  Biso 1.000000     C
    C   1.0     0.766709     0.990559     0.545333  Biso 1.000000     C
    C   1.0     0.319958     0.944798     0.551363  Biso 1.000000     C
    C   1.0     0.819997     0.944735     0.551478  Biso 1.000000     C
    C   1.0     0.352389     0.930869     0.636298  Biso 1.000000     C
    C   1.0     0.852430     0.930815     0.636413  Biso 1.000000     C
    C   1.0     0.332730     0.960932     0.718527  Biso 1.000000     C
    C   1.0     0.832757     0.960850     0.718645  Biso 1.000000     C
    C   1.0     0.278531     0.000000     0.713963  Biso 1.000000     C
    C   1.0     0.778540     0.000000     0.714086  Biso 1.000000     C
    C   1.0     0.246492     0.018368     0.628991  Biso 1.000000     C
    C   1.0     0.746496     0.018228     0.629115  Biso 1.000000     C
    C   1.0     0.370126     0.951263     0.809511  Biso 1.000000     C
    C   1.0     0.870159     0.951205     0.809627  Biso 1.000000     C
    C   1.0     0.463162     0.038256     0.851402  Biso 1.000000     C
    C   1.0     0.963180     0.038238     0.851469  Biso 1.000000     C
    C   1.0     0.417315     0.152517     0.864577  Biso 1.000000     C
    C   1.0     0.917314     0.152485     0.864632  Biso 1.000000     C
    C   1.0     0.501951     0.337642     0.916641  Biso 1.000000     C
    C   1.0     0.000000     0.337627     0.916673  Biso 1.000000     C
    C   1.0     0.498529     0.419218     0.964543  Biso 1.000000     C
    C   1.0     0.998530     0.419212     0.964554  Biso 1.000000     C
    C   1.0     0.446607     0.468089     0.955493  Biso 1.000000     C
    C   1.0     0.946607     0.468083     0.955493  Biso 1.000000     C
    C   1.0     0.050715     0.451725     0.010253  Biso 1.000000     C
    C   1.0     0.550712     0.451724     0.010243  Biso 1.000000     C
    C   1.0     0.386885     0.436157     0.915723  Biso 1.000000     C
    C   1.0     0.886884     0.436153     0.915721  Biso 1.000000     C
    C   1.0     0.360533     0.343430     0.705961  Biso 1.000000     C
    C   1.0     0.860512     0.343385     0.705968  Biso 1.000000     C
    C   1.0     0.304450     0.236925     0.693850  Biso 1.000000     C
    C   1.0     0.804424     0.236884     0.693891  Biso 1.000000     C
    C   1.0     0.326746     0.196939     0.532156  Biso 1.000000     C
    C   1.0     0.826704     0.196864     0.532202  Biso 1.000000     C
    C   1.0     0.380376     0.142304     0.523897  Biso 1.000000     C
    C   1.0     0.880344     0.142250     0.523928  Biso 1.000000     C
    C   1.0     0.422555     0.125743     0.598207  Biso 1.000000     C
    C   1.0     0.922529     0.125695     0.598233  Biso 1.000000     C
    C   1.0     0.469090     0.070942     0.588554  Biso 1.000000     C
    C   1.0     0.969074     0.070914     0.588569  Biso 1.000000     C
    C   1.0     0.475511     0.029953     0.504616  Biso 1.000000     C
    C   1.0     0.975502     0.029941     0.504624  Biso 1.000000     C
    C   1.0     0.433239     0.048675     0.429857  Biso 1.000000     C
    C   1.0     0.933222     0.048652     0.429871  Biso 1.000000     C
    C   1.0     0.386890     0.103669     0.439204  Biso 1.000000     C
    C   1.0     0.886862     0.103627     0.439230  Biso 1.000000     C
    C   1.0     0.016704     0.509424     0.545279  Biso 1.000000     C
    C   1.0     0.516702     0.509422     0.545277  Biso 1.000000     C
    C   1.0     0.069943     0.555292     0.551392  Biso 1.000000     C
    C   1.0     0.569946     0.555279     0.551388  Biso 1.000000     C
    C   1.0     0.102380     0.569204     0.636310  Biso 1.000000     C
    C   1.0     0.602382     0.569192     0.636306  Biso 1.000000     C
    C   1.0     0.082755     0.539113     0.718552  Biso 1.000000     C
    C   1.0     0.582750     0.539118     0.718552  Biso 1.000000     C
    C   1.0     0.028587     0.496361     0.714027  Biso 1.000000     C
    C   1.0     0.528578     0.496377     0.714027  Biso 1.000000     C
    C   1.0     0.496529     0.481694     0.629071  Biso 1.000000     C
    C   1.0     0.996534     0.481677     0.629071  Biso 1.000000     C
    C   1.0     0.120161     0.548767     0.809515  Biso 1.000000     C
    C   1.0     0.620154     0.548773     0.809516  Biso 1.000000     C
    C   1.0     0.213201     0.461674     0.851251  Biso 1.000000     C
    C   1.0     0.713193     0.461678     0.851261  Biso 1.000000     C
    C   1.0     0.167368     0.347485     0.864765  Biso 1.000000     C
    C   1.0     0.667358     0.347492     0.864779  Biso 1.000000     C
    C   1.0     0.251911     0.162169     0.916099  Biso 1.000000     C
    C   1.0     0.751911     0.162204     0.916181  Biso 1.000000     C
    C   1.0     0.248524     0.080694     0.964239  Biso 1.000000     C
    C   1.0     0.748517     0.080720     0.964300  Biso 1.000000     C
    C   1.0     0.196607     0.031875     0.955400  Biso 1.000000     C
    C   1.0     0.696602     0.031898     0.955451  Biso 1.000000     C
    C   1.0     0.300718     0.048243     0.010026  Biso 1.000000     C
    C   1.0     0.800711     0.048268     0.010086  Biso 1.000000     C
    C   1.0     0.136867     0.063811     0.915660  Biso 1.000000     C
    C   1.0     0.636863     0.063823     0.915689  Biso 1.000000     C
    C   1.0     0.389632     0.843388     0.293997  Biso 1.000000     C
    C   1.0     0.889644     0.843398     0.294004  Biso 1.000000     C
    C   1.0     0.445626     0.736734     0.306025  Biso 1.000000     C
    C   1.0     0.945630     0.736736     0.306023  Biso 1.000000     C
    C   1.0     0.423300     0.696679     0.467713  Biso 1.000000     C
    C   1.0     0.923317     0.696692     0.467720  Biso 1.000000     C
    C   1.0     0.369645     0.642141     0.475996  Biso 1.000000     C
    C   1.0     0.869668     0.642143     0.476007  Biso 1.000000     C
    C   1.0     0.327433     0.625694     0.401714  Biso 1.000000     C
    C   1.0     0.827421     0.625755     0.401754  Biso 1.000000     C
    C   1.0     0.280877     0.570970     0.411384  Biso 1.000000     C
    C   1.0     0.780867     0.571030     0.411429  Biso 1.000000     C
    C   1.0     0.274467     0.529927     0.495309  Biso 1.000000     C
    C   1.0     0.774497     0.529918     0.495326  Biso 1.000000     C
    C   1.0     0.316769     0.548540     0.570045  Biso 1.000000     C
    C   1.0     0.816838     0.548468     0.570032  Biso 1.000000     C
    C   1.0     0.363140     0.603455     0.560680  Biso 1.000000     C
    C   1.0     0.863203     0.603391     0.560666  Biso 1.000000     C
    C   1.0     0.233262     0.009473     0.454597  Biso 1.000000     C
    C   1.0     0.733282     0.009369     0.454718  Biso 1.000000     C
    C   1.0     0.179974     0.055297     0.448452  Biso 1.000000     C
    C   1.0     0.680013     0.055235     0.448568  Biso 1.000000     C
    C   1.0     0.147540     0.069215     0.363518  Biso 1.000000     C
    C   1.0     0.647581     0.069161     0.363633  Biso 1.000000     C
    C   1.0     0.167212     0.039178     0.281285  Biso 1.000000     C
    C   1.0     0.667239     0.039096     0.281404  Biso 1.000000     C
    C   1.0     0.221429    -0.003515     0.285845  Biso 1.000000     C
    C   1.0     0.721439    -0.003640     0.285968  Biso 1.000000     C
    C   1.0     0.253474     0.981802     0.370816  Biso 1.000000     C
    C   1.0     0.753479     0.981664     0.370940  Biso 1.000000     C
    C   1.0     0.129809     0.048820     0.190304  Biso 1.000000     C
    C   1.0     0.629842     0.048763     0.190421  Biso 1.000000     C
    C   1.0     0.036791     0.961781     0.148467  Biso 1.000000     C
    C   1.0     0.536809     0.961763     0.148534  Biso 1.000000     C
    C   1.0     0.082660     0.847537     0.135306  Biso 1.000000     C
    C   1.0     0.582659     0.847506     0.135360  Biso 1.000000     C
    C   1.0    -0.001982     0.662394     0.083263  Biso 1.000000     C
    C   1.0     0.498021     0.662381     0.083292  Biso 1.000000     C
    C   1.0     0.001445     0.580806     0.035388  Biso 1.000000     C
    C   1.0     0.501444     0.580801     0.035402  Biso 1.000000     C
    C   1.0     0.053368     0.531934     0.044454  Biso 1.000000     C
    C   1.0     0.553366     0.531929     0.044455  Biso 1.000000     C
    C   1.0     0.449260     0.548293     0.989703  Biso 1.000000     C
    C   1.0     0.949260     0.548292     0.989690  Biso 1.000000     C
    C   1.0     0.113091     0.563862     0.084228  Biso 1.000000     C
    C   1.0     0.613089     0.563858     0.084228  Biso 1.000000     C
    N   1.0     0.177637     0.703011     0.246948  Biso 1.000000     N
    N   1.0     0.677620     0.702978     0.246974  Biso 1.000000     N
    N   1.0     0.133033     0.684420     0.378252  Biso 1.000000     N
    N   1.0     0.633002     0.684362     0.378262  Biso 1.000000     N
    N   1.0     0.169247     0.752430     0.384790  Biso 1.000000     N
    N   1.0     0.669213     0.752374     0.384822  Biso 1.000000     N
    N   1.0     0.276978     0.617901     0.128982  Biso 1.000000     N
    N   1.0     0.776969     0.617905     0.128998  Biso 1.000000     N
    N   1.0     0.375793     0.599187     0.157879  Biso 1.000000     N
    N   1.0     0.875784     0.599196     0.157887  Biso 1.000000     N
    N   1.0     0.345930     0.526828     0.165900  Biso 1.000000     N
    N   1.0     0.845923     0.526835     0.165907  Biso 1.000000     N
    N   1.0     0.072196     0.203077     0.752999  Biso 1.000000     N
    N   1.0     0.572200     0.203079     0.752997  Biso 1.000000     N
    N   1.0     0.116796     0.184461     0.621687  Biso 1.000000     N
    N   1.0     0.616814     0.184474     0.621697  Biso 1.000000     N
    N   1.0     0.080652     0.252583     0.615185  Biso 1.000000     N
    N   1.0     0.580665     0.252592     0.615190  Biso 1.000000     N
    N   1.0     0.472957     0.117823     0.871005  Biso 1.000000     N
    N   1.0     0.972962     0.117812     0.871048  Biso 1.000000     N
    N   1.0     0.374157     0.099213     0.841806  Biso 1.000000     N
    N   1.0     0.874164     0.099162     0.841888  Biso 1.000000     N
    N   1.0     0.404023     0.000000     0.834002  Biso 1.000000     N
    N   1.0     0.904042     0.000000     0.834094  Biso 1.000000     N
    N   1.0     0.322353     0.297041     0.752970  Biso 1.000000     N
    N   1.0     0.822336     0.297008     0.752996  Biso 1.000000     N
    N   1.0     0.366972     0.315663     0.621683  Biso 1.000000     N
    N   1.0     0.866942     0.315604     0.621693  Biso 1.000000     N
    N   1.0     0.330760     0.247651     0.615118  Biso 1.000000     N
    N   1.0     0.830727     0.247594     0.615150  Biso 1.000000     N
    N   1.0     0.223007     0.382115     0.870949  Biso 1.000000     N
    N   1.0     0.722997     0.382119     0.870964  Biso 1.000000     N
    N   1.0     0.124192     0.400834     0.842061  Biso 1.000000     N
    N   1.0     0.624183     0.400841     0.842069  Biso 1.000000     N
    N   1.0     0.154056     0.473192     0.834046  Biso 1.000000     N
    N   1.0     0.654048     0.473198     0.834051  Biso 1.000000     N
    N   1.0     0.427776     0.796945     0.246949  Biso 1.000000     N
    N   1.0     0.927780     0.796948     0.246948  Biso 1.000000     N
    N   1.0     0.383163     0.815560     0.378248  Biso 1.000000     N
    N   1.0     0.883182     0.815574     0.378259  Biso 1.000000     N
    N   1.0     0.419314     0.747445     0.384761  Biso 1.000000     N
    N   1.0     0.919327     0.747453     0.384766  Biso 1.000000     N
    N   1.0     0.027011     0.882207     0.128890  Biso 1.000000     N
    N   1.0     0.527017     0.882196     0.128933  Biso 1.000000     N
    N   1.0     0.125809     0.900862     0.158047  Biso 1.000000     N
    N   1.0     0.625815     0.900813     0.158128  Biso 1.000000     N
    N   1.0     0.095929    -0.026744     0.165840  Biso 1.000000     N
    N   1.0     0.595948    -0.026785     0.165932  Biso 1.000000     N
    O   1.0     0.212816     0.783958     0.041928  Biso 1.000000     O
    O   1.0     0.712837     0.783977     0.042014  Biso 1.000000     O
    O   1.0     0.276282     0.827508     0.161434  Biso 1.000000     O
    O   1.0     0.776269     0.827591     0.161539  Biso 1.000000     O
    O   1.0     0.379617     0.868112     0.047284  Biso 1.000000     O
    O   1.0     0.879596     0.868116     0.047312  Biso 1.000000     O
    O   1.0     0.393684    -0.023930     0.145002  Biso 1.000000     O
    O   1.0     0.893695    -0.023920     0.145015  Biso 1.000000     O
    O   1.0     0.037242     0.283798     0.958591  Biso 1.000000     O
    O   1.0     0.537228     0.283804     0.958552  Biso 1.000000     O
    O   1.0     0.473763     0.327232     0.838972  Biso 1.000000     O
    O   1.0     0.973763     0.327196     0.839009  Biso 1.000000     O
    O   1.0     0.370368     0.368103     0.952729  Biso 1.000000     O
    O   1.0     0.870363     0.368106     0.952735  Biso 1.000000     O
    O   1.0     0.356320     0.476070     0.854954  Biso 1.000000     O
    O   1.0     0.856321     0.476064     0.854948  Biso 1.000000     O
    O   1.0     0.287145     0.216039     0.957948  Biso 1.000000     O
    O   1.0     0.787161     0.216058     0.958028  Biso 1.000000     O
    O   1.0     0.223706     0.172455     0.838420  Biso 1.000000     O
    O   1.0     0.723694     0.172526     0.838518  Biso 1.000000     O
    O   1.0     0.120378     0.131892     0.952644  Biso 1.000000     O
    O   1.0     0.620358     0.131896     0.952671  Biso 1.000000     O
    O   1.0     0.106282     0.000000     0.854931  Biso 1.000000     O
    O   1.0     0.606293     0.000000     0.854945  Biso 1.000000     O
    O   1.0     0.462742     0.716214     0.041376  Biso 1.000000     O
    O   1.0     0.962729     0.716220     0.041342  Biso 1.000000     O
    O   1.0     0.026213     0.672832     0.160924  Biso 1.000000     O
    O   1.0     0.526214     0.672805     0.160956  Biso 1.000000     O
    O   1.0     0.129614     0.631909     0.047219  Biso 1.000000     O
    O   1.0     0.629608     0.631911     0.047225  Biso 1.000000     O
    O   1.0     0.143652     0.523948     0.145002  Biso 1.000000     O
    O   1.0     0.643654     0.523941     0.144994  Biso 1.000000     O
   Zn   1.0     0.200102     0.683857     0.113632  Biso 1.000000    Zn
   Zn   1.0     0.700093     0.683855     0.113650  Biso 1.000000    Zn
   Zn   1.0     0.049810     0.183861     0.886378  Biso 1.000000    Zn
   Zn   1.0     0.549806     0.183859     0.886371  Biso 1.000000    Zn
   Zn   1.0     0.299885     0.316157     0.886306  Biso 1.000000    Zn
   Zn   1.0     0.799876     0.316156     0.886323  Biso 1.000000    Zn
   Zn   1.0     0.450173     0.816151     0.113582  Biso 1.000000    Zn
   Zn   1.0     0.950169     0.816148     0.113576  Biso 1.000000    Zn
