#======================================================================

# CRYSTAL DATA

#----------------------------------------------------------------------

data_VESTA_phase_1


_pd_phase_name                         MOF
_cell_length_a                         13.59200
_cell_length_b                         22.21200
_cell_length_c                         22.22200
_cell_angle_alpha                      72.16500
_cell_angle_beta                       90.01700
_cell_angle_gamma                      89.99700
_symmetry_space_group_name_H-M         "P 1"
_symmetry_Int_Tables_number            1

loop_
_symmetry_equiv_pos_as_xyz
   "x, y, z"

loop_
   _atom_site_label
   _atom_site_occupancy
   _atom_site_fract_x
   _atom_site_fract_y
   _atom_site_fract_z
   _atom_site_adp_type
   _atom_site_B_iso_or_equiv
   _atom_site_type_symbol
    H   1.0     0.316770     0.486178     0.067846  Biso 1.000000     H
    H   1.0     0.316591     0.486174     0.567886  Biso 1.000000     H
    H   1.0     0.316920     0.986137     0.067823  Biso 1.000000     H
    H   1.0     0.316605     0.986131     0.567897  Biso 1.000000     H
    H   1.0     0.816789     0.486178     0.067846  Biso 1.000000     H
    H   1.0     0.816610     0.486174     0.567886  Biso 1.000000     H
    H   1.0     0.816940     0.986137     0.067823  Biso 1.000000     H
    H   1.0     0.816622     0.986130     0.567897  Biso 1.000000     H
    H   1.0     0.200951     0.486560     0.107188  Biso 1.000000     H
    H   1.0     0.200834     0.486583     0.607290  Biso 1.000000     H
    H   1.0     0.201095     0.986785     0.107088  Biso 1.000000     H
    H   1.0     0.200872     0.986739     0.607272  Biso 1.000000     H
    H   1.0     0.700969     0.486559     0.107188  Biso 1.000000     H
    H   1.0     0.700853     0.486583     0.607289  Biso 1.000000     H
    H   1.0     0.701114     0.986785     0.107087  Biso 1.000000     H
    H   1.0     0.700889     0.986739     0.607273  Biso 1.000000     H
    H   1.0     0.201235     0.126448     0.218564  Biso 1.000000     H
    H   1.0     0.201084     0.126587     0.718514  Biso 1.000000     H
    H   1.0     0.201273     0.626393     0.218612  Biso 1.000000     H
    H   1.0     0.201142     0.626519     0.718548  Biso 1.000000     H
    H   1.0     0.701253     0.126447     0.218565  Biso 1.000000     H
    H   1.0     0.701103     0.126586     0.718514  Biso 1.000000     H
    H   1.0     0.701292     0.626392     0.218613  Biso 1.000000     H
    H   1.0     0.701160     0.626519     0.718548  Biso 1.000000     H
    H   1.0     0.130627     0.175760     0.154543  Biso 1.000000     H
    H   1.0     0.130544     0.175857     0.654432  Biso 1.000000     H
    H   1.0     0.130693     0.675733     0.154592  Biso 1.000000     H
    H   1.0     0.130605     0.675811     0.654477  Biso 1.000000     H
    H   1.0     0.630646     0.175760     0.154544  Biso 1.000000     H
    H   1.0     0.630563     0.175857     0.654433  Biso 1.000000     H
    H   1.0     0.630712     0.675733     0.154593  Biso 1.000000     H
    H   1.0     0.630624     0.675811     0.654478  Biso 1.000000     H
    H   1.0     0.309161     0.367935     0.125238  Biso 1.000000     H
    H   1.0     0.308872     0.367913     0.625455  Biso 1.000000     H
    H   1.0     0.308711     0.867926     0.125376  Biso 1.000000     H
    H   1.0     0.308408     0.867882     0.625688  Biso 1.000000     H
    H   1.0     0.809182     0.367935     0.125236  Biso 1.000000     H
    H   1.0     0.808893     0.367913     0.625454  Biso 1.000000     H
    H   1.0     0.808733     0.867926     0.125374  Biso 1.000000     H
    H   1.0     0.808423     0.867881     0.625692  Biso 1.000000     H
    H   1.0     0.278480     0.082178     0.139949  Biso 1.000000     H
    H   1.0     0.278389     0.082207     0.639987  Biso 1.000000     H
    H   1.0     0.278500     0.582143     0.139967  Biso 1.000000     H
    H   1.0     0.278425     0.582169     0.639986  Biso 1.000000     H
    H   1.0     0.778498     0.082178     0.139949  Biso 1.000000     H
    H   1.0     0.778407     0.082207     0.639987  Biso 1.000000     H
    H   1.0     0.778518     0.582143     0.139967  Biso 1.000000     H
    H   1.0     0.778443     0.582169     0.639986  Biso 1.000000     H
    H   1.0     0.316684     0.013804     0.432086  Biso 1.000000     H
    H   1.0     0.316948     0.013808     0.932146  Biso 1.000000     H
    H   1.0     0.316598     0.513783     0.432052  Biso 1.000000     H
    H   1.0     0.316717     0.513773     0.932077  Biso 1.000000     H
    H   1.0     0.816703     0.013804     0.432086  Biso 1.000000     H
    H   1.0     0.816967     0.013808     0.932146  Biso 1.000000     H
    H   1.0     0.816617     0.513783     0.432052  Biso 1.000000     H
    H   1.0     0.816737     0.513773     0.932077  Biso 1.000000     H
    H   1.0     0.200953     0.013146     0.392700  Biso 1.000000     H
    H   1.0     0.201134     0.013181     0.892844  Biso 1.000000     H
    H   1.0     0.200869     0.513291     0.392620  Biso 1.000000     H
    H   1.0     0.200929     0.513431     0.892670  Biso 1.000000     H
    H   1.0     0.700972     0.013147     0.392701  Biso 1.000000     H
    H   1.0     0.701152     0.013182     0.892844  Biso 1.000000     H
    H   1.0     0.700888     0.513291     0.392621  Biso 1.000000     H
    H   1.0     0.700948     0.513431     0.892671  Biso 1.000000     H
    H   1.0     0.200978     0.373394     0.281424  Biso 1.000000     H
    H   1.0     0.201106     0.373527     0.781373  Biso 1.000000     H
    H   1.0     0.200950     0.873327     0.281482  Biso 1.000000     H
    H   1.0     0.201102     0.873472     0.781437  Biso 1.000000     H
    H   1.0     0.700997     0.373395     0.281424  Biso 1.000000     H
    H   1.0     0.701124     0.373528     0.781372  Biso 1.000000     H
    H   1.0     0.700969     0.873328     0.281482  Biso 1.000000     H
    H   1.0     0.701121     0.873473     0.781436  Biso 1.000000     H
    H   1.0     0.130577     0.324087     0.345534  Biso 1.000000     H
    H   1.0     0.130667     0.324173     0.845435  Biso 1.000000     H
    H   1.0     0.130519     0.824064     0.345601  Biso 1.000000     H
    H   1.0     0.130610     0.824166     0.845496  Biso 1.000000     H
    H   1.0     0.630596     0.324088     0.345534  Biso 1.000000     H
    H   1.0     0.630686     0.324173     0.845434  Biso 1.000000     H
    H   1.0     0.630538     0.824064     0.345600  Biso 1.000000     H
    H   1.0     0.630628     0.824167     0.845495  Biso 1.000000     H
    H   1.0     0.308232     0.132058     0.374404  Biso 1.000000     H
    H   1.0     0.308656     0.132033     0.874703  Biso 1.000000     H
    H   1.0     0.308522     0.632056     0.374481  Biso 1.000000     H
    H   1.0     0.309039     0.632040     0.874758  Biso 1.000000     H
    H   1.0     0.808253     0.132058     0.374405  Biso 1.000000     H
    H   1.0     0.808676     0.132033     0.874703  Biso 1.000000     H
    H   1.0     0.808543     0.632056     0.374482  Biso 1.000000     H
    H   1.0     0.809059     0.632040     0.874759  Biso 1.000000     H
    H   1.0     0.278352     0.417771     0.359965  Biso 1.000000     H
    H   1.0     0.278425     0.417814     0.859985  Biso 1.000000     H
    H   1.0     0.278348     0.917736     0.359996  Biso 1.000000     H
    H   1.0     0.278441     0.917778     0.860030  Biso 1.000000     H
    H   1.0     0.778370     0.417771     0.359965  Biso 1.000000     H
    H   1.0     0.778443     0.417815     0.859985  Biso 1.000000     H
    H   1.0     0.778366     0.917736     0.359996  Biso 1.000000     H
    H   1.0     0.778459     0.917778     0.860030  Biso 1.000000     H
    H   1.0     0.183265     0.067739     0.486190  Biso 1.000000     H
    H   1.0     0.183096     0.067714     0.986155  Biso 1.000000     H
    H   1.0     0.183410     0.567752     0.486179  Biso 1.000000     H
    H   1.0     0.183403     0.567753     0.986156  Biso 1.000000     H
    H   1.0     0.683284     0.067739     0.486190  Biso 1.000000     H
    H   1.0     0.683117     0.067714     0.986156  Biso 1.000000     H
    H   1.0     0.683430     0.567752     0.486179  Biso 1.000000     H
    H   1.0     0.683421     0.567753     0.986156  Biso 1.000000     H
    H   1.0     0.299073     0.107138     0.486605  Biso 1.000000     H
    H   1.0     0.298919     0.107023     0.986848  Biso 1.000000     H
    H   1.0     0.299166     0.607198     0.486635  Biso 1.000000     H
    H   1.0     0.299130     0.607169     0.986834  Biso 1.000000     H
    H   1.0     0.799092     0.107138     0.486606  Biso 1.000000     H
    H   1.0     0.798939     0.107024     0.986848  Biso 1.000000     H
    H   1.0     0.799185     0.607199     0.486636  Biso 1.000000     H
    H   1.0     0.799148     0.607169     0.986835  Biso 1.000000     H
    H   1.0     0.298852     0.218596     0.126396  Biso 1.000000     H
    H   1.0     0.298822     0.218637     0.626357  Biso 1.000000     H
    H   1.0     0.299014     0.718526     0.126547  Biso 1.000000     H
    H   1.0     0.298937     0.718573     0.626462  Biso 1.000000     H
    H   1.0     0.798870     0.218595     0.126397  Biso 1.000000     H
    H   1.0     0.798841     0.218637     0.626358  Biso 1.000000     H
    H   1.0     0.799033     0.718525     0.126548  Biso 1.000000     H
    H   1.0     0.798956     0.718573     0.626462  Biso 1.000000     H
    H   1.0     0.369457     0.154573     0.175717  Biso 1.000000     H
    H   1.0     0.369404     0.154618     0.675708  Biso 1.000000     H
    H   1.0     0.369553     0.654442     0.175824  Biso 1.000000     H
    H   1.0     0.369484     0.654513     0.675773  Biso 1.000000     H
    H   1.0     0.869475     0.154572     0.175718  Biso 1.000000     H
    H   1.0     0.869422     0.154617     0.675708  Biso 1.000000     H
    H   1.0     0.869572     0.654441     0.175824  Biso 1.000000     H
    H   1.0     0.869502     0.654513     0.675773  Biso 1.000000     H
    H   1.0     0.190842     0.125242     0.368015  Biso 1.000000     H
    H   1.0     0.191300     0.125356     0.868015  Biso 1.000000     H
    H   1.0     0.191111     0.625426     0.367993  Biso 1.000000     H
    H   1.0     0.191640     0.625650     0.867984  Biso 1.000000     H
    H   1.0     0.690863     0.125243     0.368015  Biso 1.000000     H
    H   1.0     0.691320     0.125357     0.868015  Biso 1.000000     H
    H   1.0     0.691132     0.625427     0.367993  Biso 1.000000     H
    H   1.0     0.691660     0.625651     0.867984  Biso 1.000000     H
    H   1.0     0.221536     0.139900     0.082226  Biso 1.000000     H
    H   1.0     0.221529     0.139908     0.582210  Biso 1.000000     H
    H   1.0     0.221639     0.639917     0.082263  Biso 1.000000     H
    H   1.0     0.221601     0.639908     0.582232  Biso 1.000000     H
    H   1.0     0.721554     0.139900     0.082226  Biso 1.000000     H
    H   1.0     0.721547     0.139908     0.582210  Biso 1.000000     H
    H   1.0     0.721656     0.639917     0.082263  Biso 1.000000     H
    H   1.0     0.721619     0.639908     0.582232  Biso 1.000000     H
    H   1.0     0.183448     0.432141     0.013795  Biso 1.000000     H
    H   1.0     0.183542     0.432107     0.513791  Biso 1.000000     H
    H   1.0     0.183208     0.932172     0.013807  Biso 1.000000     H
    H   1.0     0.183501     0.932098     0.513782  Biso 1.000000     H
    H   1.0     0.683467     0.432140     0.013795  Biso 1.000000     H
    H   1.0     0.683561     0.432107     0.513791  Biso 1.000000     H
    H   1.0     0.683227     0.932172     0.013807  Biso 1.000000     H
    H   1.0     0.683525     0.932097     0.513781  Biso 1.000000     H
    H   1.0     0.299155     0.392700     0.013178  Biso 1.000000     H
    H   1.0     0.299253     0.392623     0.513351  Biso 1.000000     H
    H   1.0     0.299002     0.892811     0.013237  Biso 1.000000     H
    H   1.0     0.299255     0.892617     0.513509  Biso 1.000000     H
    H   1.0     0.799174     0.392699     0.013177  Biso 1.000000     H
    H   1.0     0.799271     0.392622     0.513350  Biso 1.000000     H
    H   1.0     0.799020     0.892811     0.013236  Biso 1.000000     H
    H   1.0     0.799278     0.892613     0.513513  Biso 1.000000     H
    H   1.0     0.299059     0.281394     0.373434  Biso 1.000000     H
    H   1.0     0.299100     0.281451     0.873376  Biso 1.000000     H
    H   1.0     0.298960     0.781335     0.373555  Biso 1.000000     H
    H   1.0     0.298963     0.781384     0.873534  Biso 1.000000     H
    H   1.0     0.799077     0.281394     0.373433  Biso 1.000000     H
    H   1.0     0.799118     0.281451     0.873375  Biso 1.000000     H
    H   1.0     0.798979     0.781336     0.373554  Biso 1.000000     H
    H   1.0     0.798981     0.781384     0.873533  Biso 1.000000     H
    H   1.0     0.369471     0.345503     0.324134  Biso 1.000000     H
    H   1.0     0.369540     0.345568     0.824118  Biso 1.000000     H
    H   1.0     0.369398     0.845404     0.324209  Biso 1.000000     H
    H   1.0     0.369459     0.845443     0.824230  Biso 1.000000     H
    H   1.0     0.869489     0.345504     0.324133  Biso 1.000000     H
    H   1.0     0.869559     0.345568     0.824118  Biso 1.000000     H
    H   1.0     0.869416     0.845405     0.324208  Biso 1.000000     H
    H   1.0     0.869478     0.845444     0.824230  Biso 1.000000     H
    H   1.0     0.191762     0.374318     0.131989  Biso 1.000000     H
    H   1.0     0.191449     0.374394     0.632003  Biso 1.000000     H
    H   1.0     0.191343     0.874601     0.131977  Biso 1.000000     H
    H   1.0     0.190990     0.874621     0.631997  Biso 1.000000     H
    H   1.0     0.691783     0.374316     0.131989  Biso 1.000000     H
    H   1.0     0.691470     0.374393     0.632003  Biso 1.000000     H
    H   1.0     0.691365     0.874600     0.131977  Biso 1.000000     H
    H   1.0     0.691004     0.874622     0.631996  Biso 1.000000     H
    H   1.0     0.221721     0.359993     0.417737  Biso 1.000000     H
    H   1.0     0.221739     0.360017     0.917714  Biso 1.000000     H
    H   1.0     0.221674     0.859992     0.417784  Biso 1.000000     H
    H   1.0     0.221662     0.860030     0.917768  Biso 1.000000     H
    H   1.0     0.721739     0.359992     0.417737  Biso 1.000000     H
    H   1.0     0.721758     0.360017     0.917713  Biso 1.000000     H
    H   1.0     0.721693     0.859992     0.417784  Biso 1.000000     H
    H   1.0     0.721680     0.860030     0.917768  Biso 1.000000     H
    C   1.0     0.270324     0.460852     0.107961  Biso 1.000000     C
    C   1.0     0.270181     0.460859     0.608025  Biso 1.000000     C
    C   1.0     0.270349     0.960940     0.107923  Biso 1.000000     C
    C   1.0     0.270125     0.960912     0.608036  Biso 1.000000     C
    C   1.0     0.770343     0.460852     0.107961  Biso 1.000000     C
    C   1.0     0.770201     0.460859     0.608025  Biso 1.000000     C
    C   1.0     0.770369     0.960940     0.107923  Biso 1.000000     C
    C   1.0     0.770142     0.960912     0.608037  Biso 1.000000     C
    C   1.0     0.324671     0.454406     0.169854  Biso 1.000000     C
    C   1.0     0.324627     0.454406     0.669886  Biso 1.000000     C
    C   1.0     0.324674     0.954451     0.169832  Biso 1.000000     C
    C   1.0     0.324601     0.954429     0.669894  Biso 1.000000     C
    C   1.0     0.824689     0.454406     0.169853  Biso 1.000000     C
    C   1.0     0.824645     0.454406     0.669886  Biso 1.000000     C
    C   1.0     0.824692     0.954451     0.169832  Biso 1.000000     C
    C   1.0     0.824618     0.954429     0.669894  Biso 1.000000     C
    C   1.0     0.168397     0.130048     0.172497  Biso 1.000000     C
    C   1.0     0.168297     0.130144     0.672443  Biso 1.000000     C
    C   1.0     0.168449     0.630015     0.172536  Biso 1.000000     C
    C   1.0     0.168354     0.630096     0.672473  Biso 1.000000     C
    C   1.0     0.668416     0.130047     0.172497  Biso 1.000000     C
    C   1.0     0.668315     0.130144     0.672443  Biso 1.000000     C
    C   1.0     0.668468     0.630015     0.172537  Biso 1.000000     C
    C   1.0     0.668372     0.630096     0.672473  Biso 1.000000     C
    C   1.0     0.095888     0.075792     0.179967  Biso 1.000000     C
    C   1.0     0.095786     0.075887     0.679935  Biso 1.000000     C
    C   1.0     0.095921     0.575773     0.179976  Biso 1.000000     C
    C   1.0     0.095835     0.575845     0.679944  Biso 1.000000     C
    C   1.0     0.595906     0.075792     0.179967  Biso 1.000000     C
    C   1.0     0.595804     0.075887     0.679935  Biso 1.000000     C
    C   1.0     0.595939     0.575773     0.179976  Biso 1.000000     C
    C   1.0     0.595853     0.575845     0.679944  Biso 1.000000     C
    C   1.0     0.270143     0.039027     0.391956  Biso 1.000000     C
    C   1.0     0.270359     0.039041     0.892046  Biso 1.000000     C
    C   1.0     0.270132     0.539087     0.391915  Biso 1.000000     C
    C   1.0     0.270274     0.539146     0.891955  Biso 1.000000     C
    C   1.0     0.770162     0.039027     0.391957  Biso 1.000000     C
    C   1.0     0.770378     0.039041     0.892046  Biso 1.000000     C
    C   1.0     0.770151     0.539088     0.391915  Biso 1.000000     C
    C   1.0     0.770294     0.539147     0.891956  Biso 1.000000     C
    C   1.0     0.324573     0.045567     0.330093  Biso 1.000000     C
    C   1.0     0.324655     0.045561     0.830143  Biso 1.000000     C
    C   1.0     0.324575     0.545606     0.330061  Biso 1.000000     C
    C   1.0     0.324629     0.545632     0.830079  Biso 1.000000     C
    C   1.0     0.824592     0.045567     0.330093  Biso 1.000000     C
    C   1.0     0.824673     0.045561     0.830143  Biso 1.000000     C
    C   1.0     0.824593     0.545606     0.330061  Biso 1.000000     C
    C   1.0     0.824647     0.545632     0.830079  Biso 1.000000     C
    C   1.0     0.168276     0.369808     0.327512  Biso 1.000000     C
    C   1.0     0.168367     0.369898     0.827461  Biso 1.000000     C
    C   1.0     0.168242     0.869775     0.327561  Biso 1.000000     C
    C   1.0     0.168344     0.869879     0.827511  Biso 1.000000     C
    C   1.0     0.668295     0.369809     0.327512  Biso 1.000000     C
    C   1.0     0.668385     0.369899     0.827460  Biso 1.000000     C
    C   1.0     0.668261     0.869775     0.327561  Biso 1.000000     C
    C   1.0     0.668362     0.869879     0.827511  Biso 1.000000     C
    C   1.0     0.095732     0.424043     0.320082  Biso 1.000000     C
    C   1.0     0.095810     0.424122     0.820060  Biso 1.000000     C
    C   1.0     0.095725     0.924030     0.320093  Biso 1.000000     C
    C   1.0     0.095824     0.924129     0.820066  Biso 1.000000     C
    C   1.0     0.595750     0.424043     0.320082  Biso 1.000000     C
    C   1.0     0.595828     0.424122     0.820060  Biso 1.000000     C
    C   1.0     0.595744     0.924030     0.320093  Biso 1.000000     C
    C   1.0     0.595842     0.924129     0.820066  Biso 1.000000     C
    C   1.0     0.229687     0.107902     0.460912  Biso 1.000000     C
    C   1.0     0.229658     0.107856     0.961010  Biso 1.000000     C
    C   1.0     0.229807     0.607936     0.460921  Biso 1.000000     C
    C   1.0     0.229879     0.607937     0.961003  Biso 1.000000     C
    C   1.0     0.729706     0.107902     0.460913  Biso 1.000000     C
    C   1.0     0.729677     0.107856     0.961010  Biso 1.000000     C
    C   1.0     0.729827     0.607937     0.460921  Biso 1.000000     C
    C   1.0     0.729898     0.607937     0.961004  Biso 1.000000     C
    C   1.0     0.175341     0.169808     0.454501  Biso 1.000000     C
    C   1.0     0.175347     0.169784     0.954547  Biso 1.000000     C
    C   1.0     0.175379     0.669815     0.454508  Biso 1.000000     C
    C   1.0     0.175417     0.669813     0.954551  Biso 1.000000     C
    C   1.0     0.675360     0.169808     0.454502  Biso 1.000000     C
    C   1.0     0.675366     0.169785     0.954547  Biso 1.000000     C
    C   1.0     0.675398     0.669815     0.454508  Biso 1.000000     C
    C   1.0     0.675435     0.669813     0.954551  Biso 1.000000     C
    C   1.0     0.331665     0.172499     0.130026  Biso 1.000000     C
    C   1.0     0.331625     0.172532     0.630011  Biso 1.000000     C
    C   1.0     0.331779     0.672425     0.130132  Biso 1.000000     C
    C   1.0     0.331711     0.672469     0.630077  Biso 1.000000     C
    C   1.0     0.831683     0.172499     0.130026  Biso 1.000000     C
    C   1.0     0.831643     0.172532     0.630011  Biso 1.000000     C
    C   1.0     0.831797     0.672425     0.130132  Biso 1.000000     C
    C   1.0     0.831729     0.672469     0.630078  Biso 1.000000     C
    C   1.0     0.404122     0.179975     0.075775  Biso 1.000000     C
    C   1.0     0.404102     0.179980     0.575773  Biso 1.000000     C
    C   1.0     0.404236     0.679929     0.075877  Biso 1.000000     C
    C   1.0     0.404179     0.679943     0.575832  Biso 1.000000     C
    C   1.0     0.904140     0.179975     0.075775  Biso 1.000000     C
    C   1.0     0.904120     0.179980     0.575773  Biso 1.000000     C
    C   1.0     0.904254     0.679929     0.075877  Biso 1.000000     C
    C   1.0     0.904197     0.679943     0.575832  Biso 1.000000     C
    C   1.0     0.229933     0.391965     0.039002  Biso 1.000000     C
    C   1.0     0.229949     0.391925     0.539083  Biso 1.000000     C
    C   1.0     0.229739     0.892028     0.039034  Biso 1.000000     C
    C   1.0     0.229867     0.891925     0.539153  Biso 1.000000     C
    C   1.0     0.729952     0.391965     0.039001  Biso 1.000000     C
    C   1.0     0.729968     0.391924     0.539083  Biso 1.000000     C
    C   1.0     0.729758     0.892028     0.039033  Biso 1.000000     C
    C   1.0     0.729888     0.891923     0.539154  Biso 1.000000     C
    C   1.0     0.175480     0.330091     0.045479  Biso 1.000000     C
    C   1.0     0.175488     0.330059     0.545530  Biso 1.000000     C
    C   1.0     0.175420     0.830112     0.045499  Biso 1.000000     C
    C   1.0     0.175468     0.830046     0.545573  Biso 1.000000     C
    C   1.0     0.675498     0.330091     0.045479  Biso 1.000000     C
    C   1.0     0.675507     0.330059     0.545530  Biso 1.000000     C
    C   1.0     0.675438     0.830112     0.045499  Biso 1.000000     C
    C   1.0     0.675488     0.830045     0.545574  Biso 1.000000     C
    C   1.0     0.331762     0.327512     0.369830  Biso 1.000000     C
    C   1.0     0.331810     0.327559     0.869806  Biso 1.000000     C
    C   1.0     0.331694     0.827454     0.369911  Biso 1.000000     C
    C   1.0     0.331720     0.827490     0.869920  Biso 1.000000     C
    C   1.0     0.831780     0.327512     0.369829  Biso 1.000000     C
    C   1.0     0.831829     0.327559     0.869805  Biso 1.000000     C
    C   1.0     0.831713     0.827455     0.369910  Biso 1.000000     C
    C   1.0     0.831738     0.827490     0.869919  Biso 1.000000     C
    C   1.0     0.404283     0.320052     0.424069  Biso 1.000000     C
    C   1.0     0.404306     0.320059     0.924063  Biso 1.000000     C
    C   1.0     0.404233     0.820023     0.424136  Biso 1.000000     C
    C   1.0     0.404220     0.820018     0.924171  Biso 1.000000     C
    C   1.0     0.904301     0.320052     0.424068  Biso 1.000000     C
    C   1.0     0.904324     0.320059     0.924063  Biso 1.000000     C
    C   1.0     0.904251     0.820023     0.424136  Biso 1.000000     C
    C   1.0     0.904239     0.820018     0.924170  Biso 1.000000     C
    N   1.0     0.250326     0.396171     0.103653  Biso 1.000000     N
    N   1.0     0.250127     0.396174     0.603743  Biso 1.000000     N
    N   1.0     0.250042     0.896271     0.103681  Biso 1.000000     N
    N   1.0     0.249834     0.896232     0.603816  Biso 1.000000     N
    N   1.0     0.750346     0.396170     0.103652  Biso 1.000000     N
    N   1.0     0.750147     0.396174     0.603743  Biso 1.000000     N
    N   1.0     0.750062     0.896271     0.103680  Biso 1.000000     N
    N   1.0     0.749851     0.896232     0.603818  Biso 1.000000     N
    N   1.0     0.249698     0.103670     0.396233  Biso 1.000000     N
    N   1.0     0.249989     0.103682     0.896348  Biso 1.000000     N
    N   1.0     0.249881     0.603736     0.396237  Biso 1.000000     N
    N   1.0     0.250225     0.603799     0.896329  Biso 1.000000     N
    N   1.0     0.749718     0.103670     0.396234  Biso 1.000000     N
    N   1.0     0.750009     0.103683     0.896348  Biso 1.000000     N
    N   1.0     0.749901     0.603737     0.396237  Biso 1.000000     N
    N   1.0     0.750245     0.603799     0.896329  Biso 1.000000     N
    N   1.0     0.250017     0.128161     0.128187  Biso 1.000000     N
    N   1.0     0.249963     0.128199     0.628181  Biso 1.000000     N
    N   1.0     0.250085     0.628136     0.128233  Biso 1.000000     N
    N   1.0     0.250022     0.628166     0.628207  Biso 1.000000     N
    N   1.0     0.750035     0.128161     0.128187  Biso 1.000000     N
    N   1.0     0.749981     0.128199     0.628181  Biso 1.000000     N
    N   1.0     0.750103     0.628136     0.128233  Biso 1.000000     N
    N   1.0     0.750040     0.628166     0.628206  Biso 1.000000     N
    N   1.0     0.250019     0.371764     0.371745  Biso 1.000000     N
    N   1.0     0.250075     0.371812     0.871730  Biso 1.000000     N
    N   1.0     0.249981     0.871737     0.371794  Biso 1.000000     N
    N   1.0     0.250032     0.871789     0.871793  Biso 1.000000     N
    N   1.0     0.750037     0.371764     0.371745  Biso 1.000000     N
    N   1.0     0.750093     0.371812     0.871730  Biso 1.000000     N
    N   1.0     0.749999     0.871737     0.371794  Biso 1.000000     N
    N   1.0     0.750050     0.871789     0.871793  Biso 1.000000     N
    O   1.0     0.349358     0.007587     0.177565  Biso 1.000000     O
    O   1.0     0.349248     0.007561     0.677643  Biso 1.000000     O
    O   1.0     0.349342     0.507540     0.177567  Biso 1.000000     O
    O   1.0     0.349276     0.507533     0.677618  Biso 1.000000     O
    O   1.0     0.849377     0.007587     0.177565  Biso 1.000000     O
    O   1.0     0.849266     0.007561     0.677644  Biso 1.000000     O
    O   1.0     0.849360     0.507540     0.177567  Biso 1.000000     O
    O   1.0     0.849295     0.507533     0.677617  Biso 1.000000     O
    O   1.0     0.341296     0.400274     0.205874  Biso 1.000000     O
    O   1.0     0.341335     0.400266     0.705872  Biso 1.000000     O
    O   1.0     0.341267     0.900308     0.205842  Biso 1.000000     O
    O   1.0     0.341327     0.900280     0.705856  Biso 1.000000     O
    O   1.0     0.841314     0.400274     0.205875  Biso 1.000000     O
    O   1.0     0.841353     0.400266     0.705872  Biso 1.000000     O
    O   1.0     0.841285     0.900308     0.205842  Biso 1.000000     O
    O   1.0     0.841345     0.900280     0.705856  Biso 1.000000     O
    O   1.0     0.026257     0.076804     0.219142  Biso 1.000000     O
    O   1.0     0.026086     0.076948     0.719050  Biso 1.000000     O
    O   1.0     0.026283     0.576781     0.219149  Biso 1.000000     O
    O   1.0     0.026147     0.576894     0.719071  Biso 1.000000     O
    O   1.0     0.526275     0.076804     0.219142  Biso 1.000000     O
    O   1.0     0.526104     0.076948     0.719050  Biso 1.000000     O
    O   1.0     0.526301     0.576781     0.219149  Biso 1.000000     O
    O   1.0     0.526164     0.576894     0.719071  Biso 1.000000     O
    O   1.0     0.108374     0.036486     0.150918  Biso 1.000000     O
    O   1.0     0.108340     0.036525     0.650957  Biso 1.000000     O
    O   1.0     0.108395     0.536482     0.150909  Biso 1.000000     O
    O   1.0     0.108368     0.536504     0.650941  Biso 1.000000     O
    O   1.0     0.608392     0.036486     0.150918  Biso 1.000000     O
    O   1.0     0.608358     0.036525     0.650957  Biso 1.000000     O
    O   1.0     0.608413     0.536482     0.150909  Biso 1.000000     O
    O   1.0     0.608386     0.536504     0.650941  Biso 1.000000     O
    O   1.0     0.349172     0.492504     0.322251  Biso 1.000000     O
    O   1.0     0.349242     0.492514     0.822304  Biso 1.000000     O
    O   1.0     0.349217     0.992457     0.322283  Biso 1.000000     O
    O   1.0     0.349334     0.992438     0.822367  Biso 1.000000     O
    O   1.0     0.849191     0.492504     0.322251  Biso 1.000000     O
    O   1.0     0.849260     0.492514     0.822304  Biso 1.000000     O
    O   1.0     0.849235     0.992456     0.322283  Biso 1.000000     O
    O   1.0     0.849352     0.992438     0.822367  Biso 1.000000     O
    O   1.0     0.341306     0.099738     0.294194  Biso 1.000000     O
    O   1.0     0.341269     0.099719     0.794187  Biso 1.000000     O
    O   1.0     0.341347     0.599773     0.294167  Biso 1.000000     O
    O   1.0     0.341330     0.599785     0.794140  Biso 1.000000     O
    O   1.0     0.841324     0.099738     0.294194  Biso 1.000000     O
    O   1.0     0.841287     0.099719     0.794186  Biso 1.000000     O
    O   1.0     0.841365     0.599772     0.294167  Biso 1.000000     O
    O   1.0     0.841348     0.599785     0.794139  Biso 1.000000     O
    O   1.0     0.025958     0.422973     0.280995  Biso 1.000000     O
    O   1.0     0.026070     0.423081     0.780942  Biso 1.000000     O
    O   1.0     0.025969     0.922964     0.280994  Biso 1.000000     O
    O   1.0     0.026121     0.923102     0.780920  Biso 1.000000     O
    O   1.0     0.525976     0.422973     0.280995  Biso 1.000000     O
    O   1.0     0.526088     0.423081     0.780942  Biso 1.000000     O
    O   1.0     0.525987     0.922964     0.280994  Biso 1.000000     O
    O   1.0     0.526140     0.923102     0.780919  Biso 1.000000     O
    O   1.0     0.108336     0.463410     0.349053  Biso 1.000000     O
    O   1.0     0.108373     0.463449     0.849080  Biso 1.000000     O
    O   1.0     0.108335     0.963409     0.349049  Biso 1.000000     O
    O   1.0     0.108380     0.963461     0.849081  Biso 1.000000     O
    O   1.0     0.608354     0.463410     0.349053  Biso 1.000000     O
    O   1.0     0.608391     0.463450     0.849080  Biso 1.000000     O
    O   1.0     0.608353     0.963410     0.349050  Biso 1.000000     O
    O   1.0     0.608398     0.963461     0.849081  Biso 1.000000     O
    O   1.0     0.150609     0.177486     0.007644  Biso 1.000000     O
    O   1.0     0.150638     0.177481     0.507620  Biso 1.000000     O
    O   1.0     0.150693     0.677519     0.007644  Biso 1.000000     O
    O   1.0     0.150682     0.677494     0.507622  Biso 1.000000     O
    O   1.0     0.650628     0.177486     0.007644  Biso 1.000000     O
    O   1.0     0.650656     0.177481     0.507620  Biso 1.000000     O
    O   1.0     0.650711     0.677519     0.007644  Biso 1.000000     O
    O   1.0     0.650700     0.677494     0.507622  Biso 1.000000     O
    O   1.0     0.158693     0.205873     0.400407  Biso 1.000000     O
    O   1.0     0.158739     0.205836     0.900441  Biso 1.000000     O
    O   1.0     0.158675     0.705858     0.400409  Biso 1.000000     O
    O   1.0     0.158697     0.705829     0.900440  Biso 1.000000     O
    O   1.0     0.658711     0.205873     0.400408  Biso 1.000000     O
    O   1.0     0.658757     0.205836     0.900441  Biso 1.000000     O
    O   1.0     0.658693     0.705857     0.400409  Biso 1.000000     O
    O   1.0     0.658716     0.705829     0.900441  Biso 1.000000     O
    O   1.0     0.473758     0.219179     0.076761  Biso 1.000000     O
    O   1.0     0.473744     0.219182     0.576755  Biso 1.000000     O
    O   1.0     0.473944     0.719070     0.076917  Biso 1.000000     O
    O   1.0     0.473863     0.719108     0.576848  Biso 1.000000     O
    O   1.0     0.973777     0.219179     0.076761  Biso 1.000000     O
    O   1.0     0.973762     0.219182     0.576755  Biso 1.000000     O
    O   1.0     0.973962     0.719070     0.076917  Biso 1.000000     O
    O   1.0     0.973882     0.719108     0.576849  Biso 1.000000     O
    O   1.0     0.391617     0.150890     0.036504  Biso 1.000000     O
    O   1.0     0.391609     0.150878     0.536517  Biso 1.000000     O
    O   1.0     0.391660     0.650921     0.036546  Biso 1.000000     O
    O   1.0     0.391639     0.650895     0.536534  Biso 1.000000     O
    O   1.0     0.891635     0.150890     0.036505  Biso 1.000000     O
    O   1.0     0.891627     0.150878     0.536517  Biso 1.000000     O
    O   1.0     0.891678     0.650921     0.036546  Biso 1.000000     O
    O   1.0     0.891657     0.650895     0.536534  Biso 1.000000     O
    O   1.0     0.150866     0.322298     0.492432  Biso 1.000000     O
    O   1.0     0.150837     0.322318     0.992398  Biso 1.000000     O
    O   1.0     0.150848     0.822307     0.492462  Biso 1.000000     O
    O   1.0     0.150757     0.822362     0.992408  Biso 1.000000     O
    O   1.0     0.650884     0.322297     0.492432  Biso 1.000000     O
    O   1.0     0.650855     0.322318     0.992398  Biso 1.000000     O
    O   1.0     0.650868     0.822306     0.492462  Biso 1.000000     O
    O   1.0     0.650775     0.822362     0.992408  Biso 1.000000     O
    O   1.0     0.158680     0.294150     0.099604  Biso 1.000000     O
    O   1.0     0.158654     0.294118     0.599649  Biso 1.000000     O
    O   1.0     0.158726     0.794126     0.099615  Biso 1.000000     O
    O   1.0     0.158671     0.794075     0.599681  Biso 1.000000     O
    O   1.0     0.658698     0.294151     0.099604  Biso 1.000000     O
    O   1.0     0.658672     0.294118     0.599649  Biso 1.000000     O
    O   1.0     0.658745     0.794126     0.099615  Biso 1.000000     O
    O   1.0     0.658689     0.794074     0.599682  Biso 1.000000     O
    O   1.0     0.474052     0.280952     0.423016  Biso 1.000000     O
    O   1.0     0.474061     0.280951     0.923010  Biso 1.000000     O
    O   1.0     0.473978     0.780901     0.423105  Biso 1.000000     O
    O   1.0     0.473922     0.780861     0.923159  Biso 1.000000     O
    O   1.0     0.974070     0.280952     0.423016  Biso 1.000000     O
    O   1.0     0.974079     0.280951     0.923010  Biso 1.000000     O
    O   1.0     0.973996     0.780900     0.423104  Biso 1.000000     O
    O   1.0     0.973940     0.780862     0.923159  Biso 1.000000     O
    O   1.0     0.391683     0.349050     0.463404  Biso 1.000000     O
    O   1.0     0.391700     0.349039     0.963415  Biso 1.000000     O
    O   1.0     0.391667     0.849061     0.463439  Biso 1.000000     O
    O   1.0     0.391669     0.849060     0.963471  Biso 1.000000     O
    O   1.0     0.891701     0.349050     0.463404  Biso 1.000000     O
    O   1.0     0.891718     0.349039     0.963414  Biso 1.000000     O
    O   1.0     0.891685     0.849061     0.463439  Biso 1.000000     O
    O   1.0     0.891687     0.849060     0.963471  Biso 1.000000     O
   Zn   1.0     0.445908    -0.000026     0.250002  Biso 1.000000    Zn
   Zn   1.0     0.445909     0.000026     0.750001  Biso 1.000000    Zn
   Zn   1.0     0.445907     0.499965     0.249995  Biso 1.000000    Zn
   Zn   1.0     0.445907     0.500008     0.749997  Biso 1.000000    Zn
   Zn   1.0     0.945926    -0.000026     0.250003  Biso 1.000000    Zn
   Zn   1.0     0.945927     0.000026     0.750001  Biso 1.000000    Zn
   Zn   1.0     0.945925     0.499965     0.249995  Biso 1.000000    Zn
   Zn   1.0     0.945925     0.500008     0.749997  Biso 1.000000    Zn
   Zn   1.0     0.054110     0.249985    -0.000031  Biso 1.000000    Zn
   Zn   1.0     0.054123     0.249976     0.499975  Biso 1.000000    Zn
   Zn   1.0     0.054134     0.749963     0.500013  Biso 1.000000    Zn
   Zn   1.0     0.054134     0.749960     0.000000  Biso 1.000000    Zn
   Zn   1.0     0.554127     0.249985    -0.000031  Biso 1.000000    Zn
   Zn   1.0     0.554140     0.249976     0.499975  Biso 1.000000    Zn
   Zn   1.0     0.554152     0.749963     0.500013  Biso 1.000000    Zn
   Zn   1.0     0.554138     0.749966     0.000029  Biso 1.000000    Zn
