#======================================================================

# CRYSTAL DATA

#----------------------------------------------------------------------

data_VESTA_phase_1


_pd_phase_name                         MOF
_cell_length_a                         17.20200
_cell_length_b                         18.54800
_cell_length_c                         18.55600
_cell_angle_alpha                      77.63300
_cell_angle_beta                       62.43300
_cell_angle_gamma                      62.42400
_symmetry_space_group_name_H-M         "P 1"
_symmetry_Int_Tables_number            1

loop_
_symmetry_equiv_pos_as_xyz
   "x, y, z"

loop_
   _atom_site_label
   _atom_site_occupancy
   _atom_site_fract_x
   _atom_site_fract_y
   _atom_site_fract_z
   _atom_site_adp_type
   _atom_site_B_iso_or_equiv
   _atom_site_type_symbol
    C   1.0     0.281215     0.261194     0.261179  Biso 1.000000     C
    C   1.0     0.281215     0.261195     0.761167  Biso 1.000000     C
    C   1.0     0.281219     0.761190     0.261175  Biso 1.000000     C
    C   1.0     0.281218     0.761193     0.761160  Biso 1.000000     C
    C   1.0     0.781225     0.261193     0.261181  Biso 1.000000     C
    C   1.0     0.781225     0.261196     0.761165  Biso 1.000000     C
    C   1.0     0.781229     0.761191     0.261173  Biso 1.000000     C
    C   1.0     0.781229     0.761192     0.761161  Biso 1.000000     C
    C   1.0     0.053318     0.489089     0.489039  Biso 1.000000     C
    C   1.0     0.053319     0.489093     0.989023  Biso 1.000000     C
    C   1.0     0.053317     0.989082     0.489040  Biso 1.000000     C
    C   1.0     0.053318     0.989087     0.989025  Biso 1.000000     C
    C   1.0     0.553329     0.489089     0.489039  Biso 1.000000     C
    C   1.0     0.553330     0.489093     0.989023  Biso 1.000000     C
    C   1.0     0.553328     0.989081     0.489041  Biso 1.000000     C
    C   1.0     0.553329     0.989086     0.989024  Biso 1.000000     C
    C   1.0     0.042314     0.239043     0.011120  Biso 1.000000     C
    C   1.0     0.042316     0.239046     0.511104  Biso 1.000000     C
    C   1.0     0.042322     0.739033     0.011113  Biso 1.000000     C
    C   1.0     0.042323     0.739034     0.511100  Biso 1.000000     C
    C   1.0     0.542325     0.239045     0.011118  Biso 1.000000     C
    C   1.0     0.542326     0.239044     0.511106  Biso 1.000000     C
    C   1.0     0.542333     0.739031     0.011115  Biso 1.000000     C
    C   1.0     0.542334     0.739036     0.511098  Biso 1.000000     C
    C   1.0     0.042332     0.011141     0.238986  Biso 1.000000     C
    C   1.0     0.042333     0.011145     0.738971  Biso 1.000000     C
    C   1.0     0.042333     0.511134     0.238985  Biso 1.000000     C
    C   1.0     0.042334     0.511135     0.738972  Biso 1.000000     C
    C   1.0     0.542343     0.011143     0.238984  Biso 1.000000     C
    C   1.0     0.542344     0.011143     0.738973  Biso 1.000000     C
    C   1.0     0.542344     0.511132     0.238987  Biso 1.000000     C
    C   1.0     0.542345     0.511137     0.738970  Biso 1.000000     C
    C   1.0     0.218698     0.239002     0.238965  Biso 1.000000     C
    C   1.0     0.218699     0.239002     0.738953  Biso 1.000000     C
    C   1.0     0.218702     0.738997     0.238961  Biso 1.000000     C
    C   1.0     0.218702     0.739002     0.738945  Biso 1.000000     C
    C   1.0     0.718709     0.239001     0.238967  Biso 1.000000     C
    C   1.0     0.718709     0.239004     0.738951  Biso 1.000000     C
    C   1.0     0.718713     0.738999     0.238959  Biso 1.000000     C
    C   1.0     0.718713     0.739000     0.738947  Biso 1.000000     C
    C   1.0     0.446575     0.011118     0.011097  Biso 1.000000     C
    C   1.0     0.446575     0.011123     0.511081  Biso 1.000000     C
    C   1.0     0.446574     0.511111     0.011098  Biso 1.000000     C
    C   1.0     0.446574     0.511116     0.511083  Biso 1.000000     C
    C   1.0     0.946585     0.011118     0.011097  Biso 1.000000     C
    C   1.0     0.946586     0.011123     0.511081  Biso 1.000000     C
    C   1.0     0.946585     0.511111     0.011098  Biso 1.000000     C
    C   1.0     0.946585     0.511116     0.511082  Biso 1.000000     C
    C   1.0     0.457597     0.261155     0.489010  Biso 1.000000     C
    C   1.0     0.457599     0.261160     0.988992  Biso 1.000000     C
    C   1.0     0.457605     0.761148     0.489002  Biso 1.000000     C
    C   1.0     0.457607     0.761146     0.988990  Biso 1.000000     C
    C   1.0     0.957609     0.261157     0.489007  Biso 1.000000     C
    C   1.0     0.957610     0.261158     0.988994  Biso 1.000000     C
    C   1.0     0.957616     0.761145     0.489003  Biso 1.000000     C
    C   1.0     0.957618     0.761148     0.988987  Biso 1.000000     C
    C   1.0     0.457598     0.489044     0.261129  Biso 1.000000     C
    C   1.0     0.457598     0.489049     0.761112  Biso 1.000000     C
    C   1.0     0.457598     0.989038     0.261125  Biso 1.000000     C
    C   1.0     0.457599     0.989037     0.761114  Biso 1.000000     C
    C   1.0     0.957608     0.489046     0.261127  Biso 1.000000     C
    C   1.0     0.957609     0.489047     0.761114  Biso 1.000000     C
    C   1.0     0.957610     0.989036     0.261127  Biso 1.000000     C
    C   1.0     0.957610     0.989039     0.761112  Biso 1.000000     C
    O   1.0     0.235833     0.315333     0.315332  Biso 1.000000     O
    O   1.0     0.235833     0.315334     0.815320  Biso 1.000000     O
    O   1.0     0.235836     0.815330     0.315327  Biso 1.000000     O
    O   1.0     0.235836     0.815333     0.815313  Biso 1.000000     O
    O   1.0     0.735843     0.315332     0.315334  Biso 1.000000     O
    O   1.0     0.735843     0.315336     0.815318  Biso 1.000000     O
    O   1.0     0.735847     0.815331     0.315326  Biso 1.000000     O
    O   1.0     0.735847     0.815331     0.815314  Biso 1.000000     O
    O   1.0     0.095974     0.473816     0.276175  Biso 1.000000     O
    O   1.0     0.095975     0.473817     0.776162  Biso 1.000000     O
    O   1.0     0.095968     0.973815     0.276181  Biso 1.000000     O
    O   1.0     0.095969     0.973819     0.776166  Biso 1.000000     O
    O   1.0     0.595985     0.473814     0.276177  Biso 1.000000     O
    O   1.0     0.595986     0.473819     0.776160  Biso 1.000000     O
    O   1.0     0.595979     0.973817     0.276179  Biso 1.000000     O
    O   1.0     0.595980     0.973816     0.776168  Biso 1.000000     O
    O   1.0     0.116237     0.434981     0.434889  Biso 1.000000     O
    O   1.0     0.116238     0.434984     0.934874  Biso 1.000000     O
    O   1.0     0.116237     0.934972     0.434893  Biso 1.000000     O
    O   1.0     0.116238     0.934977     0.934877  Biso 1.000000     O
    O   1.0     0.616247     0.434980     0.434891  Biso 1.000000     O
    O   1.0     0.616249     0.434985     0.934874  Biso 1.000000     O
    O   1.0     0.616248     0.934973     0.434891  Biso 1.000000     O
    O   1.0     0.616249     0.934975     0.934878  Biso 1.000000     O
    O   1.0     0.095962     0.276235     0.473771  Biso 1.000000     O
    O   1.0     0.095960     0.276239     0.973761  Biso 1.000000     O
    O   1.0     0.095970     0.776222     0.473765  Biso 1.000000     O
    O   1.0     0.095968     0.776229     0.973753  Biso 1.000000     O
    O   1.0     0.595973     0.276233     0.473773  Biso 1.000000     O
    O   1.0     0.595971     0.276241     0.973759  Biso 1.000000     O
    O   1.0     0.595981     0.776224     0.473763  Biso 1.000000     O
    O   1.0     0.595980     0.776226     0.973755  Biso 1.000000     O
    O   1.0     0.050994     0.185017     0.065357  Biso 1.000000     O
    O   1.0     0.050997     0.185018     0.565340  Biso 1.000000     O
    O   1.0     0.051001     0.685009     0.065351  Biso 1.000000     O
    O   1.0     0.051003     0.685008     0.565337  Biso 1.000000     O
    O   1.0     0.551005     0.185019     0.065355  Biso 1.000000     O
    O   1.0     0.551008     0.185016     0.565341  Biso 1.000000     O
    O   1.0     0.551012     0.685007     0.065353  Biso 1.000000     O
    O   1.0     0.551014     0.685010     0.565335  Biso 1.000000     O
    O   1.0     0.372004     0.223990     0.223972  Biso 1.000000     O
    O   1.0     0.372004     0.223991     0.723960  Biso 1.000000     O
    O   1.0     0.372008     0.723985     0.223968  Biso 1.000000     O
    O   1.0     0.372008     0.723990     0.723953  Biso 1.000000     O
    O   1.0     0.872014     0.223989     0.223974  Biso 1.000000     O
    O   1.0     0.872014     0.223993     0.723958  Biso 1.000000     O
    O   1.0     0.872018     0.723987     0.223967  Biso 1.000000     O
    O   1.0     0.872019     0.723988     0.723954  Biso 1.000000     O
    O   1.0     0.051036     0.065347     0.184926  Biso 1.000000     O
    O   1.0     0.051036     0.065351     0.684911  Biso 1.000000     O
    O   1.0     0.051041     0.565337     0.184921  Biso 1.000000     O
    O   1.0     0.051041     0.565339     0.684909  Biso 1.000000     O
    O   1.0     0.551047     0.065349     0.184923  Biso 1.000000     O
    O   1.0     0.551048     0.065349     0.684912  Biso 1.000000     O
    O   1.0     0.551052     0.565335     0.184923  Biso 1.000000     O
    O   1.0     0.551052     0.565341     0.684907  Biso 1.000000     O
    O   1.0     0.069587     0.026391     0.026373  Biso 1.000000     O
    O   1.0     0.069588     0.026393     0.526359  Biso 1.000000     O
    O   1.0     0.069589     0.526384     0.026370  Biso 1.000000     O
    O   1.0     0.069590     0.526384     0.526358  Biso 1.000000     O
    O   1.0     0.569598     0.026392     0.026372  Biso 1.000000     O
    O   1.0     0.569599     0.026392     0.526360  Biso 1.000000     O
    O   1.0     0.569600     0.526383     0.026371  Biso 1.000000     O
    O   1.0     0.569600     0.526386     0.526357  Biso 1.000000     O
    O   1.0     0.264083     0.184865     0.184810  Biso 1.000000     O
    O   1.0     0.264083     0.184864     0.684799  Biso 1.000000     O
    O   1.0     0.264087     0.684860     0.184806  Biso 1.000000     O
    O   1.0     0.264087     0.684863     0.684791  Biso 1.000000     O
    O   1.0     0.764093     0.184863     0.184812  Biso 1.000000     O
    O   1.0     0.764094     0.184865     0.684797  Biso 1.000000     O
    O   1.0     0.764098     0.684862     0.184804  Biso 1.000000     O
    O   1.0     0.764098     0.684862     0.684792  Biso 1.000000     O
    O   1.0     0.403958     0.026368     0.223935  Biso 1.000000     O
    O   1.0     0.403960     0.026367     0.723923  Biso 1.000000     O
    O   1.0     0.403952     0.526366     0.223943  Biso 1.000000     O
    O   1.0     0.403953     0.526371     0.723925  Biso 1.000000     O
    O   1.0     0.903969     0.026366     0.223937  Biso 1.000000     O
    O   1.0     0.903970     0.026369     0.723920  Biso 1.000000     O
    O   1.0     0.903963     0.526368     0.223941  Biso 1.000000     O
    O   1.0     0.903964     0.526369     0.723927  Biso 1.000000     O
    O   1.0     0.383655     0.065226     0.065247  Biso 1.000000     O
    O   1.0     0.383655     0.065229     0.565233  Biso 1.000000     O
    O   1.0     0.383655     0.565217     0.065251  Biso 1.000000     O
    O   1.0     0.383656     0.565223     0.565235  Biso 1.000000     O
    O   1.0     0.883665     0.065226     0.065248  Biso 1.000000     O
    O   1.0     0.883666     0.065230     0.565232  Biso 1.000000     O
    O   1.0     0.883666     0.565218     0.065250  Biso 1.000000     O
    O   1.0     0.883667     0.565221     0.565236  Biso 1.000000     O
    O   1.0     0.403948     0.223968     0.026356  Biso 1.000000     O
    O   1.0     0.403946     0.223971     0.526347  Biso 1.000000     O
    O   1.0     0.403957     0.723954     0.026352  Biso 1.000000     O
    O   1.0     0.403954     0.723963     0.526339  Biso 1.000000     O
    O   1.0     0.903959     0.223966     0.026357  Biso 1.000000     O
    O   1.0     0.903957     0.223974     0.526345  Biso 1.000000     O
    O   1.0     0.903968     0.723956     0.026349  Biso 1.000000     O
    O   1.0     0.903965     0.723961     0.526340  Biso 1.000000     O
    O   1.0     0.448923     0.315178     0.434769  Biso 1.000000     O
    O   1.0     0.448926     0.315181     0.934750  Biso 1.000000     O
    O   1.0     0.448930     0.815171     0.434762  Biso 1.000000     O
    O   1.0     0.448932     0.815169     0.934749  Biso 1.000000     O
    O   1.0     0.948934     0.315180     0.434767  Biso 1.000000     O
    O   1.0     0.948937     0.315178     0.934752  Biso 1.000000     O
    O   1.0     0.948940     0.815169     0.434764  Biso 1.000000     O
    O   1.0     0.948943     0.815171     0.934747  Biso 1.000000     O
    O   1.0     0.127909     0.276203     0.276172  Biso 1.000000     O
    O   1.0     0.127909     0.276204     0.776159  Biso 1.000000     O
    O   1.0     0.127913     0.776198     0.276167  Biso 1.000000     O
    O   1.0     0.127913     0.776202     0.776152  Biso 1.000000     O
    O   1.0     0.627919     0.276202     0.276174  Biso 1.000000     O
    O   1.0     0.627919     0.276206     0.776157  Biso 1.000000     O
    O   1.0     0.627923     0.776200     0.276165  Biso 1.000000     O
    O   1.0     0.627924     0.776200     0.776154  Biso 1.000000     O
    O   1.0     0.448894     0.434837     0.315189  Biso 1.000000     O
    O   1.0     0.448894     0.434842     0.815172  Biso 1.000000     O
    O   1.0     0.448899     0.934828     0.315183  Biso 1.000000     O
    O   1.0     0.448899     0.934828     0.815172  Biso 1.000000     O
    O   1.0     0.948905     0.434839     0.315187  Biso 1.000000     O
    O   1.0     0.948906     0.434840     0.815174  Biso 1.000000     O
    O   1.0     0.948910     0.934826     0.315184  Biso 1.000000     O
    O   1.0     0.948910     0.934830     0.815169  Biso 1.000000     O
    O   1.0     0.430306     0.473820     0.473762  Biso 1.000000     O
    O   1.0     0.430307     0.473822     0.973747  Biso 1.000000     O
    O   1.0     0.430308     0.973813     0.473758  Biso 1.000000     O
    O   1.0     0.430308     0.973813     0.973747  Biso 1.000000     O
    O   1.0     0.930317     0.473821     0.473760  Biso 1.000000     O
    O   1.0     0.930318     0.473820     0.973749  Biso 1.000000     O
    O   1.0     0.930318     0.973812     0.473759  Biso 1.000000     O
    O   1.0     0.930319     0.973815     0.973745  Biso 1.000000     O
    K   1.0     0.312296     0.375259     0.375230  Biso 1.000000     K
    K   1.0     0.312298     0.375262     0.875212  Biso 1.000000     K
    K   1.0     0.312298     0.875253     0.375228  Biso 1.000000     K
    K   1.0     0.312300     0.875252     0.875215  Biso 1.000000     K
    K   1.0     0.812307     0.375260     0.375228  Biso 1.000000     K
    K   1.0     0.812309     0.375261     0.875213  Biso 1.000000     K
    K   1.0     0.812309     0.875251     0.375228  Biso 1.000000     K
    K   1.0     0.812311     0.875253     0.875213  Biso 1.000000     K
    K   1.0     0.187609     0.124948     0.124903  Biso 1.000000     K
    K   1.0     0.187611     0.124950     0.624888  Biso 1.000000     K
    K   1.0     0.187612     0.624940     0.124902  Biso 1.000000     K
    K   1.0     0.187613     0.624941     0.624888  Biso 1.000000     K
    K   1.0     0.687620     0.124949     0.124902  Biso 1.000000     K
    K   1.0     0.687622     0.124948     0.624889  Biso 1.000000     K
    K   1.0     0.687623     0.624938     0.124903  Biso 1.000000     K
    K   1.0     0.687624     0.624942     0.624886  Biso 1.000000     K
    Y   1.0     0.062510     0.375038     0.374993  Biso 1.000000     Y
    Y   1.0     0.062510     0.375040     0.874980  Biso 1.000000     Y
    Y   1.0     0.062513     0.875030     0.374992  Biso 1.000000     Y
    Y   1.0     0.062513     0.875034     0.874977  Biso 1.000000     Y
    Y   1.0     0.562520     0.375037     0.374996  Biso 1.000000     Y
    Y   1.0     0.562521     0.375042     0.874979  Biso 1.000000     Y
    Y   1.0     0.562524     0.875032     0.374990  Biso 1.000000     Y
    Y   1.0     0.562524     0.875032     0.874979  Biso 1.000000     Y
    Y   1.0     0.437399     0.125165     0.125136  Biso 1.000000     Y
    Y   1.0     0.437399     0.125165     0.625125  Biso 1.000000     Y
    Y   1.0     0.437402     0.625156     0.125137  Biso 1.000000     Y
    Y   1.0     0.437402     0.625161     0.625121  Biso 1.000000     Y
    Y   1.0     0.937409     0.125164     0.125139  Biso 1.000000     Y
    Y   1.0     0.937410     0.125167     0.625123  Biso 1.000000     Y
    Y   1.0     0.937413     0.625158     0.125135  Biso 1.000000     Y
    Y   1.0     0.937413     0.625159     0.625123  Biso 1.000000     Y
