#======================================================================

# CRYSTAL DATA

#----------------------------------------------------------------------

data_VESTA_phase_1


_pd_phase_name                         MOF
_cell_length_a                         17.20000
_cell_length_b                         18.53400
_cell_length_c                         18.53200
_cell_angle_alpha                      77.73800
_cell_angle_beta                       62.55500
_cell_angle_gamma                      62.55500
_symmetry_space_group_name_H-M         "P 1"
_symmetry_Int_Tables_number            1

loop_
_symmetry_equiv_pos_as_xyz
   "x, y, z"

loop_
   _atom_site_label
   _atom_site_occupancy
   _atom_site_fract_x
   _atom_site_fract_y
   _atom_site_fract_z
   _atom_site_adp_type
   _atom_site_B_iso_or_equiv
   _atom_site_type_symbol
    C   1.0     0.292192     0.239146     0.011240  Biso 1.000000     C
    C   1.0     0.292199     0.239138     0.511248  Biso 1.000000     C
    C   1.0     0.292196     0.739140     0.011240  Biso 1.000000     C
    C   1.0     0.292203     0.739136     0.511246  Biso 1.000000     C
    C   1.0     0.792183     0.239145     0.011241  Biso 1.000000     C
    C   1.0     0.792189     0.239140     0.511248  Biso 1.000000     C
    C   1.0     0.792188     0.739139     0.011238  Biso 1.000000     C
    C   1.0     0.792192     0.739137     0.511248  Biso 1.000000     C
    C   1.0     0.292180     0.011229     0.239176  Biso 1.000000     C
    C   1.0     0.292195     0.011218     0.739183  Biso 1.000000     C
    C   1.0     0.292193     0.511218     0.239168  Biso 1.000000     C
    C   1.0     0.292206     0.511212     0.739173  Biso 1.000000     C
    C   1.0     0.792172     0.011226     0.239176  Biso 1.000000     C
    C   1.0     0.792187     0.011218     0.739182  Biso 1.000000     C
    C   1.0     0.792182     0.511221     0.239169  Biso 1.000000     C
    C   1.0     0.792196     0.511213     0.739177  Biso 1.000000     C
    C   1.0     0.303265     0.489105     0.489148  Biso 1.000000     C
    C   1.0     0.303270     0.489103     0.989157  Biso 1.000000     C
    C   1.0     0.303267     0.989103     0.489156  Biso 1.000000     C
    C   1.0     0.303276     0.989094     0.989162  Biso 1.000000     C
    C   1.0     0.803254     0.489108     0.489150  Biso 1.000000     C
    C   1.0     0.803260     0.489102     0.989159  Biso 1.000000     C
    C   1.0     0.803257     0.989104     0.489156  Biso 1.000000     C
    C   1.0     0.803267     0.989092     0.989161  Biso 1.000000     C
    C   1.0     0.031167     0.261208     0.261232  Biso 1.000000     C
    C   1.0     0.031181     0.261199     0.761241  Biso 1.000000     C
    C   1.0     0.031167     0.761204     0.261236  Biso 1.000000     C
    C   1.0     0.031185     0.761193     0.761239  Biso 1.000000     C
    C   1.0     0.531158     0.261205     0.261232  Biso 1.000000     C
    C   1.0     0.531170     0.261200     0.761241  Biso 1.000000     C
    C   1.0     0.531156     0.761205     0.261235  Biso 1.000000     C
    C   1.0     0.531172     0.761195     0.761242  Biso 1.000000     C
    C   1.0     0.207814     0.260859     0.488811  Biso 1.000000     C
    C   1.0     0.207820     0.260856     0.988817  Biso 1.000000     C
    C   1.0     0.207818     0.760856     0.488807  Biso 1.000000     C
    C   1.0     0.207823     0.760852     0.988818  Biso 1.000000     C
    C   1.0     0.707803     0.260861     0.488812  Biso 1.000000     C
    C   1.0     0.707811     0.260855     0.988818  Biso 1.000000     C
    C   1.0     0.707807     0.760857     0.488810  Biso 1.000000     C
    C   1.0     0.707815     0.760851     0.988816  Biso 1.000000     C
    C   1.0     0.207808     0.488784     0.260884  Biso 1.000000     C
    C   1.0     0.207822     0.488777     0.760889  Biso 1.000000     C
    C   1.0     0.207818     0.988779     0.260875  Biso 1.000000     C
    C   1.0     0.207832     0.988769     0.760884  Biso 1.000000     C
    C   1.0     0.707798     0.488786     0.260885  Biso 1.000000     C
    C   1.0     0.707812     0.488777     0.760891  Biso 1.000000     C
    C   1.0     0.707809     0.988777     0.260877  Biso 1.000000     C
    C   1.0     0.707823     0.988770     0.760883  Biso 1.000000     C
    C   1.0     0.196737     0.010906     0.010896  Biso 1.000000     C
    C   1.0     0.196743     0.010898     0.510905  Biso 1.000000     C
    C   1.0     0.196739     0.510900     0.010903  Biso 1.000000     C
    C   1.0     0.196750     0.510889     0.510907  Biso 1.000000     C
    C   1.0     0.696728     0.010904     0.010894  Biso 1.000000     C
    C   1.0     0.696733     0.010900     0.510905  Biso 1.000000     C
    C   1.0     0.696730     0.510900     0.010904  Biso 1.000000     C
    C   1.0     0.696739     0.510891     0.510910  Biso 1.000000     C
    C   1.0     0.468835     0.238802     0.238813  Biso 1.000000     C
    C   1.0     0.468846     0.238798     0.738823  Biso 1.000000     C
    C   1.0     0.468833     0.738803     0.238817  Biso 1.000000     C
    C   1.0     0.468849     0.738791     0.738825  Biso 1.000000     C
    C   1.0     0.968822     0.238805     0.238815  Biso 1.000000     C
    C   1.0     0.968835     0.238797     0.738824  Biso 1.000000     C
    C   1.0     0.968821     0.738802     0.238819  Biso 1.000000     C
    C   1.0     0.968839     0.738791     0.738821  Biso 1.000000     C
    O   1.0     0.345859     0.276307     0.473877  Biso 1.000000     O
    O   1.0     0.345867     0.276301     0.973883  Biso 1.000000     O
    O   1.0     0.345862     0.776306     0.473874  Biso 1.000000     O
    O   1.0     0.345872     0.776294     0.973882  Biso 1.000000     O
    O   1.0     0.845849     0.276309     0.473877  Biso 1.000000     O
    O   1.0     0.845859     0.276299     0.973884  Biso 1.000000     O
    O   1.0     0.845852     0.776306     0.473876  Biso 1.000000     O
    O   1.0     0.845865     0.776292     0.973879  Biso 1.000000     O
    O   1.0     0.300647     0.185359     0.065704  Biso 1.000000     O
    O   1.0     0.300656     0.185352     0.565712  Biso 1.000000     O
    O   1.0     0.300648     0.685356     0.065706  Biso 1.000000     O
    O   1.0     0.300662     0.685347     0.565707  Biso 1.000000     O
    O   1.0     0.800638     0.185357     0.065704  Biso 1.000000     O
    O   1.0     0.800646     0.185353     0.565712  Biso 1.000000     O
    O   1.0     0.800640     0.685356     0.065705  Biso 1.000000     O
    O   1.0     0.800650     0.685349     0.565710  Biso 1.000000     O
    O   1.0     0.345857     0.473843     0.276336  Biso 1.000000     O
    O   1.0     0.345869     0.473838     0.776343  Biso 1.000000     O
    O   1.0     0.345855     0.973848     0.276341  Biso 1.000000     O
    O   1.0     0.345869     0.973838     0.776349  Biso 1.000000     O
    O   1.0     0.845845     0.473846     0.276338  Biso 1.000000     O
    O   1.0     0.845859     0.473838     0.776345  Biso 1.000000     O
    O   1.0     0.845846     0.973847     0.276342  Biso 1.000000     O
    O   1.0     0.845861     0.973837     0.776347  Biso 1.000000     O
    O   1.0     0.300631     0.065696     0.185394  Biso 1.000000     O
    O   1.0     0.300644     0.065686     0.685402  Biso 1.000000     O
    O   1.0     0.300636     0.565691     0.185391  Biso 1.000000     O
    O   1.0     0.300653     0.565682     0.685393  Biso 1.000000     O
    O   1.0     0.800622     0.065694     0.185394  Biso 1.000000     O
    O   1.0     0.800634     0.065688     0.685402  Biso 1.000000     O
    O   1.0     0.800625     0.565693     0.185392  Biso 1.000000     O
    O   1.0     0.800641     0.565683     0.685398  Biso 1.000000     O
    O   1.0     0.319331     0.026599     0.026622  Biso 1.000000     O
    O   1.0     0.319340     0.026590     0.526629  Biso 1.000000     O
    O   1.0     0.319333     0.526601     0.026623  Biso 1.000000     O
    O   1.0     0.319346     0.526588     0.526625  Biso 1.000000     O
    O   1.0     0.819323     0.026597     0.026622  Biso 1.000000     O
    O   1.0     0.819330     0.026592     0.526629  Biso 1.000000     O
    O   1.0     0.819323     0.526601     0.026624  Biso 1.000000     O
    O   1.0     0.819335     0.526590     0.526628  Biso 1.000000     O
    O   1.0     0.366155     0.435015     0.435056  Biso 1.000000     O
    O   1.0     0.366161     0.435011     0.935066  Biso 1.000000     O
    O   1.0     0.366155     0.935014     0.435061  Biso 1.000000     O
    O   1.0     0.366166     0.935004     0.935069  Biso 1.000000     O
    O   1.0     0.866143     0.435017     0.435058  Biso 1.000000     O
    O   1.0     0.866151     0.435010     0.935067  Biso 1.000000     O
    O   1.0     0.866145     0.935015     0.435062  Biso 1.000000     O
    O   1.0     0.866158     0.935003     0.935067  Biso 1.000000     O
    O   1.0     0.121796     0.224158     0.224177  Biso 1.000000     O
    O   1.0     0.121810     0.224149     0.724187  Biso 1.000000     O
    O   1.0     0.121796     0.724154     0.224182  Biso 1.000000     O
    O   1.0     0.121814     0.724143     0.724185  Biso 1.000000     O
    O   1.0     0.621787     0.224155     0.224177  Biso 1.000000     O
    O   1.0     0.621799     0.224150     0.724187  Biso 1.000000     O
    O   1.0     0.621785     0.724155     0.224181  Biso 1.000000     O
    O   1.0     0.621801     0.724145     0.724188  Biso 1.000000     O
    O   1.0     0.485756     0.315375     0.315396  Biso 1.000000     O
    O   1.0     0.485767     0.315371     0.815405  Biso 1.000000     O
    O   1.0     0.485754     0.815377     0.315398  Biso 1.000000     O
    O   1.0     0.485769     0.815365     0.815406  Biso 1.000000     O
    O   1.0     0.985744     0.315378     0.315396  Biso 1.000000     O
    O   1.0     0.985758     0.315370     0.815405  Biso 1.000000     O
    O   1.0     0.985744     0.815376     0.315400  Biso 1.000000     O
    O   1.0     0.985761     0.815364     0.815403  Biso 1.000000     O
    O   1.0     0.154145     0.223701     0.026173  Biso 1.000000     O
    O   1.0     0.154155     0.223689     0.526182  Biso 1.000000     O
    O   1.0     0.154149     0.723695     0.026173  Biso 1.000000     O
    O   1.0     0.154161     0.723685     0.526176  Biso 1.000000     O
    O   1.0     0.654137     0.223699     0.026173  Biso 1.000000     O
    O   1.0     0.654146     0.223690     0.526181  Biso 1.000000     O
    O   1.0     0.654141     0.723695     0.026171  Biso 1.000000     O
    O   1.0     0.654150     0.723685     0.526179  Biso 1.000000     O
    O   1.0     0.199356     0.314647     0.434349  Biso 1.000000     O
    O   1.0     0.199363     0.314645     0.934355  Biso 1.000000     O
    O   1.0     0.199356     0.814648     0.434349  Biso 1.000000     O
    O   1.0     0.199367     0.814639     0.934356  Biso 1.000000     O
    O   1.0     0.699344     0.314650     0.434350  Biso 1.000000     O
    O   1.0     0.699354     0.314644     0.934357  Biso 1.000000     O
    O   1.0     0.699345     0.814649     0.434352  Biso 1.000000     O
    O   1.0     0.699359     0.814639     0.934353  Biso 1.000000     O
    O   1.0     0.154147     0.026156     0.223707  Biso 1.000000     O
    O   1.0     0.154159     0.026147     0.723717  Biso 1.000000     O
    O   1.0     0.154147     0.526156     0.223713  Biso 1.000000     O
    O   1.0     0.154162     0.526148     0.723718  Biso 1.000000     O
    O   1.0     0.654138     0.026154     0.223707  Biso 1.000000     O
    O   1.0     0.654151     0.026148     0.723716  Biso 1.000000     O
    O   1.0     0.654137     0.526157     0.223714  Biso 1.000000     O
    O   1.0     0.654151     0.526148     0.723720  Biso 1.000000     O
    O   1.0     0.199363     0.434314     0.314664  Biso 1.000000     O
    O   1.0     0.199374     0.434309     0.814671  Biso 1.000000     O
    O   1.0     0.199366     0.934315     0.314661  Biso 1.000000     O
    O   1.0     0.199381     0.934303     0.814668  Biso 1.000000     O
    O   1.0     0.699351     0.434317     0.314666  Biso 1.000000     O
    O   1.0     0.699364     0.434309     0.814673  Biso 1.000000     O
    O   1.0     0.699356     0.934314     0.314663  Biso 1.000000     O
    O   1.0     0.699373     0.934303     0.814666  Biso 1.000000     O
    O   1.0     0.180670     0.473405     0.473430  Biso 1.000000     O
    O   1.0     0.180677     0.473400     0.973438  Biso 1.000000     O
    O   1.0     0.180670     0.973410     0.473432  Biso 1.000000     O
    O   1.0     0.180682     0.973399     0.973436  Biso 1.000000     O
    O   1.0     0.680659     0.473408     0.473433  Biso 1.000000     O
    O   1.0     0.680668     0.473399     0.973439  Biso 1.000000     O
    O   1.0     0.680660     0.973411     0.473432  Biso 1.000000     O
    O   1.0     0.680674     0.973398     0.973434  Biso 1.000000     O
    O   1.0     0.133846     0.064997     0.064988  Biso 1.000000     O
    O   1.0     0.133854     0.064988     0.564999  Biso 1.000000     O
    O   1.0     0.133848     0.564992     0.064994  Biso 1.000000     O
    O   1.0     0.133861     0.564982     0.564998  Biso 1.000000     O
    O   1.0     0.633838     0.064995     0.064987  Biso 1.000000     O
    O   1.0     0.633844     0.064990     0.564999  Biso 1.000000     O
    O   1.0     0.633839     0.564993     0.064994  Biso 1.000000     O
    O   1.0     0.633849     0.564983     0.565001  Biso 1.000000     O
    O   1.0     0.378206     0.275852     0.275867  Biso 1.000000     O
    O   1.0     0.378217     0.275848     0.775876  Biso 1.000000     O
    O   1.0     0.378204     0.775853     0.275870  Biso 1.000000     O
    O   1.0     0.378219     0.775841     0.775878  Biso 1.000000     O
    O   1.0     0.878192     0.275855     0.275869  Biso 1.000000     O
    O   1.0     0.878206     0.275847     0.775877  Biso 1.000000     O
    O   1.0     0.878192     0.775853     0.275873  Biso 1.000000     O
    O   1.0     0.878210     0.775841     0.775875  Biso 1.000000     O
    O   1.0     0.014247     0.184634     0.184651  Biso 1.000000     O
    O   1.0     0.014260     0.184625     0.684661  Biso 1.000000     O
    O   1.0     0.014246     0.684631     0.184655  Biso 1.000000     O
    O   1.0     0.014264     0.684620     0.684658  Biso 1.000000     O
    O   1.0     0.514239     0.184631     0.184650  Biso 1.000000     O
    O   1.0     0.514250     0.184626     0.684660  Biso 1.000000     O
    O   1.0     0.514237     0.684632     0.184653  Biso 1.000000     O
    O   1.0     0.514252     0.684621     0.684661  Biso 1.000000     O
    K   1.0     0.438009     0.124480     0.124503  Biso 1.000000     K
    K   1.0     0.438016     0.124478     0.624514  Biso 1.000000     K
    K   1.0     0.438012     0.624476     0.124504  Biso 1.000000     K
    K   1.0     0.438023     0.624472     0.624509  Biso 1.000000     K
    K   1.0     0.937998     0.124480     0.124504  Biso 1.000000     K
    K   1.0     0.938005     0.124479     0.624514  Biso 1.000000     K
    K   1.0     0.938001     0.624477     0.124504  Biso 1.000000     K
    K   1.0     0.938013     0.624471     0.624509  Biso 1.000000     K
    K   1.0     0.061994     0.375523     0.375548  Biso 1.000000     K
    K   1.0     0.062001     0.375523     0.875557  Biso 1.000000     K
    K   1.0     0.061997     0.875520     0.375547  Biso 1.000000     K
    K   1.0     0.062009     0.875513     0.875553  Biso 1.000000     K
    K   1.0     0.561984     0.375523     0.375547  Biso 1.000000     K
    K   1.0     0.561990     0.375522     0.875558  Biso 1.000000     K
    K   1.0     0.561987     0.875520     0.375548  Biso 1.000000     K
    K   1.0     0.561997     0.875515     0.875554  Biso 1.000000     K
    Y   1.0     0.312750     0.374741     0.374771  Biso 1.000000     Y
    Y   1.0     0.312760     0.374737     0.874779  Biso 1.000000     Y
    Y   1.0     0.312748     0.874744     0.374773  Biso 1.000000     Y
    Y   1.0     0.312763     0.874732     0.874780  Biso 1.000000     Y
    Y   1.0     0.812738     0.374745     0.374772  Biso 1.000000     Y
    Y   1.0     0.812750     0.374736     0.874780  Biso 1.000000     Y
    Y   1.0     0.812738     0.874744     0.374775  Biso 1.000000     Y
    Y   1.0     0.812755     0.874731     0.874777  Biso 1.000000     Y
    Y   1.0     0.187252     0.125265     0.125278  Biso 1.000000     Y
    Y   1.0     0.187264     0.125255     0.625287  Biso 1.000000     Y
    Y   1.0     0.187252     0.625263     0.125282  Biso 1.000000     Y
    Y   1.0     0.187268     0.625252     0.625284  Biso 1.000000     Y
    Y   1.0     0.687244     0.125263     0.125278  Biso 1.000000     Y
    Y   1.0     0.687254     0.125257     0.625287  Biso 1.000000     Y
    Y   1.0     0.687242     0.625264     0.125281  Biso 1.000000     Y
    Y   1.0     0.687257     0.625253     0.625287  Biso 1.000000     Y
