#======================================================================

# CRYSTAL DATA

#----------------------------------------------------------------------

data_VESTA_phase_1


_pd_phase_name                         MOF
_cell_length_a                         12.31800
_cell_length_b                         21.04500
_cell_length_c                         16.64300
_cell_angle_alpha                      71.59000
_cell_angle_beta                       83.89100
_cell_angle_gamma                      90.00500
_symmetry_space_group_name_H-M         "P 1"
_symmetry_Int_Tables_number            1

loop_
_symmetry_equiv_pos_as_xyz
   "x, y, z"

loop_
   _atom_site_label
   _atom_site_occupancy
   _atom_site_fract_x
   _atom_site_fract_y
   _atom_site_fract_z
   _atom_site_adp_type
   _atom_site_B_iso_or_equiv
   _atom_site_type_symbol
    H   1.0     0.149982     0.171286     0.760145  Biso 1.000000     H
    H   1.0     0.149985     0.671285     0.760145  Biso 1.000000     H
    H   1.0     0.649996     0.171286     0.760145  Biso 1.000000     H
    H   1.0     0.649999     0.671285     0.760145  Biso 1.000000     H
    H   1.0     0.099992     0.051056     0.239960  Biso 1.000000     H
    H   1.0     0.099996     0.551055     0.239959  Biso 1.000000     H
    H   1.0     0.600006     0.051056     0.239960  Biso 1.000000     H
    H   1.0     0.600010     0.551055     0.239959  Biso 1.000000     H
    H   1.0     0.383872     0.127011     0.781550  Biso 1.000000     H
    H   1.0     0.383875     0.627010     0.781550  Biso 1.000000     H
    H   1.0     0.883886     0.127011     0.781549  Biso 1.000000     H
    H   1.0     0.883889     0.627010     0.781550  Biso 1.000000     H
    H   1.0     0.469202     0.065439     0.762577  Biso 1.000000     H
    H   1.0     0.469205     0.565438     0.762577  Biso 1.000000     H
    H   1.0     0.969217     0.065439     0.762576  Biso 1.000000     H
    H   1.0     0.969219     0.565438     0.762577  Biso 1.000000     H
    H   1.0     0.021561     0.091625     0.633499  Biso 1.000000     H
    H   1.0     0.021563     0.591624     0.633499  Biso 1.000000     H
    H   1.0     0.521575     0.091625     0.633499  Biso 1.000000     H
    H   1.0     0.521578     0.591624     0.633499  Biso 1.000000     H
    H   1.0     0.430270     0.156347     0.599583  Biso 1.000000     H
    H   1.0     0.430273     0.656346     0.599583  Biso 1.000000     H
    H   1.0     0.930284     0.156347     0.599583  Biso 1.000000     H
    H   1.0     0.930287     0.656346     0.599583  Biso 1.000000     H
    H   1.0     0.228614     0.408314     0.366778  Biso 1.000000     H
    H   1.0     0.228618     0.908312     0.366779  Biso 1.000000     H
    H   1.0     0.728629     0.408314     0.366778  Biso 1.000000     H
    H   1.0     0.728632     0.908312     0.366779  Biso 1.000000     H
    H   1.0     0.319799     0.456234     0.400605  Biso 1.000000     H
    H   1.0     0.319803     0.956233     0.400605  Biso 1.000000     H
    H   1.0     0.819814     0.456234     0.400605  Biso 1.000000     H
    H   1.0     0.819817     0.956233     0.400605  Biso 1.000000     H
    H   1.0     0.366151     0.017476     0.218605  Biso 1.000000     H
    H   1.0     0.366154     0.517476     0.218604  Biso 1.000000     H
    H   1.0     0.866165     0.017476     0.218605  Biso 1.000000     H
    H   1.0     0.866168     0.517476     0.218604  Biso 1.000000     H
    H   1.0     0.280662     0.446471     0.237657  Biso 1.000000     H
    H   1.0     0.280664     0.946470     0.237657  Biso 1.000000     H
    H   1.0     0.780676     0.446471     0.237657  Biso 1.000000     H
    H   1.0     0.780678     0.946470     0.237657  Biso 1.000000     H
    H   1.0     0.350042     0.328708     0.239856  Biso 1.000000     H
    H   1.0     0.350045     0.828707     0.239856  Biso 1.000000     H
    H   1.0     0.850056     0.328708     0.239856  Biso 1.000000     H
    H   1.0     0.850059     0.828707     0.239856  Biso 1.000000     H
    H   1.0     0.400031     0.448940     0.760043  Biso 1.000000     H
    H   1.0     0.400034     0.948939     0.760043  Biso 1.000000     H
    H   1.0     0.900045     0.448940     0.760043  Biso 1.000000     H
    H   1.0     0.900048     0.948939     0.760043  Biso 1.000000     H
    H   1.0     0.116151     0.372982     0.218454  Biso 1.000000     H
    H   1.0     0.116154     0.872981     0.218454  Biso 1.000000     H
    H   1.0     0.616165     0.372982     0.218453  Biso 1.000000     H
    H   1.0     0.616168     0.872981     0.218454  Biso 1.000000     H
    H   1.0     0.030824     0.434555     0.237426  Biso 1.000000     H
    H   1.0     0.030827     0.934555     0.237426  Biso 1.000000     H
    H   1.0     0.530839     0.434555     0.237426  Biso 1.000000     H
    H   1.0     0.530841     0.934554     0.237426  Biso 1.000000     H
    H   1.0     0.478456     0.408371     0.366502  Biso 1.000000     H
    H   1.0     0.478459     0.908370     0.366502  Biso 1.000000     H
    H   1.0     0.978471     0.408371     0.366502  Biso 1.000000     H
    H   1.0     0.978473     0.908370     0.366502  Biso 1.000000     H
    H   1.0     0.069751     0.343651     0.400419  Biso 1.000000     H
    H   1.0     0.069754     0.843650     0.400419  Biso 1.000000     H
    H   1.0     0.569765     0.343651     0.400419  Biso 1.000000     H
    H   1.0     0.569768     0.843650     0.400419  Biso 1.000000     H
    H   1.0     0.271403     0.091681     0.633225  Biso 1.000000     H
    H   1.0     0.271407     0.591680     0.633225  Biso 1.000000     H
    H   1.0     0.771417     0.091681     0.633225  Biso 1.000000     H
    H   1.0     0.771421     0.591680     0.633225  Biso 1.000000     H
    H   1.0     0.180222     0.043759     0.599398  Biso 1.000000     H
    H   1.0     0.180225     0.543758     0.599398  Biso 1.000000     H
    H   1.0     0.680236     0.043759     0.599398  Biso 1.000000     H
    H   1.0     0.680239     0.543758     0.599398  Biso 1.000000     H
    H   1.0     0.133872     0.482519     0.781400  Biso 1.000000     H
    H   1.0     0.133875     0.982518     0.781399  Biso 1.000000     H
    H   1.0     0.633886     0.482519     0.781400  Biso 1.000000     H
    H   1.0     0.633889     0.982518     0.781399  Biso 1.000000     H
    H   1.0     0.219364     0.053524     0.762347  Biso 1.000000     H
    H   1.0     0.219365     0.553523     0.762347  Biso 1.000000     H
    H   1.0     0.719378     0.053524     0.762347  Biso 1.000000     H
    H   1.0     0.719380     0.553523     0.762347  Biso 1.000000     H
    C   1.0     0.013979     0.100947     0.858826  Biso 1.000000     C
    C   1.0     0.013982     0.600946     0.858826  Biso 1.000000     C
    C   1.0     0.513993     0.100947     0.858826  Biso 1.000000     C
    C   1.0     0.513996     0.600946     0.858826  Biso 1.000000     C
    C   1.0     0.470194     0.114159     0.774181  Biso 1.000000     C
    C   1.0     0.470197     0.614158     0.774181  Biso 1.000000     C
    C   1.0     0.970208     0.114159     0.774181  Biso 1.000000     C
    C   1.0     0.970211     0.614158     0.774181  Biso 1.000000     C
    C   1.0     0.028194     0.168677     0.694721  Biso 1.000000     C
    C   1.0     0.028197     0.668676     0.694721  Biso 1.000000     C
    C   1.0     0.528208     0.168677     0.694721  Biso 1.000000     C
    C   1.0     0.528211     0.668676     0.694721  Biso 1.000000     C
    C   1.0     0.013780     0.146124     0.616697  Biso 1.000000     C
    C   1.0     0.013783     0.646123     0.616697  Biso 1.000000     C
    C   1.0     0.513794     0.146124     0.616697  Biso 1.000000     C
    C   1.0     0.513797     0.646123     0.616697  Biso 1.000000     C
    C   1.0     0.089603     0.177697     0.535642  Biso 1.000000     C
    C   1.0     0.089606     0.677696     0.535642  Biso 1.000000     C
    C   1.0     0.589617     0.177697     0.535642  Biso 1.000000     C
    C   1.0     0.589620     0.677696     0.535642  Biso 1.000000     C
    C   1.0     0.471534     0.237030     0.682750  Biso 1.000000     C
    C   1.0     0.471537     0.737029     0.682750  Biso 1.000000     C
    C   1.0     0.971548     0.237030     0.682749  Biso 1.000000     C
    C   1.0     0.971551     0.737029     0.682750  Biso 1.000000     C
    C   1.0     0.160452     0.445628     0.464487  Biso 1.000000     C
    C   1.0     0.160455     0.945627     0.464487  Biso 1.000000     C
    C   1.0     0.660466     0.445628     0.464487  Biso 1.000000     C
    C   1.0     0.660469     0.945627     0.464487  Biso 1.000000     C
    C   1.0     0.236300     0.454477     0.383469  Biso 1.000000     C
    C   1.0     0.236304     0.954476     0.383469  Biso 1.000000     C
    C   1.0     0.736315     0.454477     0.383469  Biso 1.000000     C
    C   1.0     0.736318     0.954476     0.383469  Biso 1.000000     C
    C   1.0     0.221815     0.015924     0.305382  Biso 1.000000     C
    C   1.0     0.221818     0.515923     0.305382  Biso 1.000000     C
    C   1.0     0.721829     0.015924     0.305382  Biso 1.000000     C
    C   1.0     0.721832     0.515923     0.305382  Biso 1.000000     C
    C   1.0     0.279800     0.501003     0.225982  Biso 1.000000     C
    C   1.0     0.279803     0.000000     0.225982  Biso 1.000000     C
    C   1.0     0.779814     0.501003     0.225982  Biso 1.000000     C
    C   1.0     0.779817     0.000000     0.225982  Biso 1.000000     C
    C   1.0     0.235988     0.030041     0.141343  Biso 1.000000     C
    C   1.0     0.235991     0.530040     0.141343  Biso 1.000000     C
    C   1.0     0.736002     0.030041     0.141343  Biso 1.000000     C
    C   1.0     0.736005     0.530040     0.141343  Biso 1.000000     C
    C   1.0     0.278452     0.078344     0.317282  Biso 1.000000     C
    C   1.0     0.278455     0.578343     0.317281  Biso 1.000000     C
    C   1.0     0.778466     0.078344     0.317282  Biso 1.000000     C
    C   1.0     0.778469     0.578343     0.317282  Biso 1.000000     C
    C   1.0     0.486045     0.399048     0.141177  Biso 1.000000     C
    C   1.0     0.486048     0.899047     0.141177  Biso 1.000000     C
    C   1.0     0.986059     0.399048     0.141177  Biso 1.000000     C
    C   1.0     0.986062     0.899047     0.141177  Biso 1.000000     C
    C   1.0     0.029830     0.385835     0.225822  Biso 1.000000     C
    C   1.0     0.029833     0.885834     0.225822  Biso 1.000000     C
    C   1.0     0.529844     0.385835     0.225822  Biso 1.000000     C
    C   1.0     0.529847     0.885834     0.225822  Biso 1.000000     C
    C   1.0     0.471828     0.331318     0.305281  Biso 1.000000     C
    C   1.0     0.471831     0.831317     0.305281  Biso 1.000000     C
    C   1.0     0.971842     0.331318     0.305281  Biso 1.000000     C
    C   1.0     0.971845     0.831317     0.305282  Biso 1.000000     C
    C   1.0     0.486240     0.353871     0.383305  Biso 1.000000     C
    C   1.0     0.486243     0.853870     0.383306  Biso 1.000000     C
    C   1.0     0.986254     0.353871     0.383306  Biso 1.000000     C
    C   1.0     0.986257     0.853870     0.383306  Biso 1.000000     C
    C   1.0     0.410419     0.322298     0.464362  Biso 1.000000     C
    C   1.0     0.410422     0.822297     0.464362  Biso 1.000000     C
    C   1.0     0.910433     0.322298     0.464362  Biso 1.000000     C
    C   1.0     0.910436     0.822297     0.464362  Biso 1.000000     C
    C   1.0     0.028488     0.262964     0.317255  Biso 1.000000     C
    C   1.0     0.028491     0.762963     0.317255  Biso 1.000000     C
    C   1.0     0.528502     0.262964     0.317255  Biso 1.000000     C
    C   1.0     0.528505     0.762963     0.317255  Biso 1.000000     C
    C   1.0     0.339570     0.054367     0.535517  Biso 1.000000     C
    C   1.0     0.339573     0.554366     0.535517  Biso 1.000000     C
    C   1.0     0.839584     0.054367     0.535517  Biso 1.000000     C
    C   1.0     0.839587     0.554366     0.535517  Biso 1.000000     C
    C   1.0     0.263720     0.045518     0.616535  Biso 1.000000     C
    C   1.0     0.263723     0.545517     0.616535  Biso 1.000000     C
    C   1.0     0.763734     0.045518     0.616535  Biso 1.000000     C
    C   1.0     0.763737     0.545517     0.616535  Biso 1.000000     C
    C   1.0     0.278207     0.484071     0.694622  Biso 1.000000     C
    C   1.0     0.278210     0.984070     0.694622  Biso 1.000000     C
    C   1.0     0.778221     0.484071     0.694622  Biso 1.000000     C
    C   1.0     0.778225     0.984070     0.694622  Biso 1.000000     C
    C   1.0     0.220224    -0.001007     0.774021  Biso 1.000000     C
    C   1.0     0.220227     0.498991     0.774022  Biso 1.000000     C
    C   1.0     0.720238    -0.001007     0.774021  Biso 1.000000     C
    C   1.0     0.720241     0.498991     0.774022  Biso 1.000000     C
    C   1.0     0.264035     0.469955     0.858660  Biso 1.000000     C
    C   1.0     0.264039     0.969954     0.858660  Biso 1.000000     C
    C   1.0     0.764049     0.469955     0.858660  Biso 1.000000     C
    C   1.0     0.764053     0.969954     0.858660  Biso 1.000000     C
    C   1.0     0.221570     0.421651     0.682723  Biso 1.000000     C
    C   1.0     0.221573     0.921650     0.682723  Biso 1.000000     C
    C   1.0     0.721584     0.421651     0.682723  Biso 1.000000     C
    C   1.0     0.721587     0.921650     0.682723  Biso 1.000000     C
    O   1.0     0.096529     0.133062     0.868569  Biso 1.000000     O
    O   1.0     0.096533     0.633061     0.868569  Biso 1.000000     O
    O   1.0     0.596544     0.133062     0.868569  Biso 1.000000     O
    O   1.0     0.596547     0.633061     0.868569  Biso 1.000000     O
    O   1.0     0.467726     0.052653     0.922902  Biso 1.000000     O
    O   1.0     0.467729     0.552651     0.922902  Biso 1.000000     O
    O   1.0     0.967740     0.052653     0.922902  Biso 1.000000     O
    O   1.0     0.967743     0.552651     0.922902  Biso 1.000000     O
    O   1.0     0.101942     0.144583     0.483112  Biso 1.000000     O
    O   1.0     0.101945     0.644582     0.483113  Biso 1.000000     O
    O   1.0     0.601956     0.144583     0.483112  Biso 1.000000     O
    O   1.0     0.601960     0.644582     0.483113  Biso 1.000000     O
    O   1.0     0.139560     0.233640     0.520913  Biso 1.000000     O
    O   1.0     0.139564     0.733639     0.520913  Biso 1.000000     O
    O   1.0     0.639575     0.233640     0.520913  Biso 1.000000     O
    O   1.0     0.639578     0.733639     0.520913  Biso 1.000000     O
    O   1.0     0.032526     0.289265     0.666988  Biso 1.000000     O
    O   1.0     0.032530     0.789264     0.666988  Biso 1.000000     O
    O   1.0     0.532541     0.289265     0.666988  Biso 1.000000     O
    O   1.0     0.532544     0.789264     0.666988  Biso 1.000000     O
    O   1.0     0.368477     0.234358     0.687472  Biso 1.000000     O
    O   1.0     0.368480     0.734358     0.687472  Biso 1.000000     O
    O   1.0     0.868491     0.234358     0.687472  Biso 1.000000     O
    O   1.0     0.868494     0.734358     0.687472  Biso 1.000000     O
    O   1.0     0.143662     0.174930     0.700029  Biso 1.000000     O
    O   1.0     0.143665     0.674929     0.700029  Biso 1.000000     O
    O   1.0     0.643676     0.174930     0.700029  Biso 1.000000     O
    O   1.0     0.643679     0.674929     0.700029  Biso 1.000000     O
    O   1.0     0.110635     0.494276     0.479161  Biso 1.000000     O
    O   1.0     0.110638     0.994275     0.479161  Biso 1.000000     O
    O   1.0     0.610649     0.494276     0.479161  Biso 1.000000     O
    O   1.0     0.610653     0.994275     0.479161  Biso 1.000000     O
    O   1.0     0.148017     0.386286     0.517052  Biso 1.000000     O
    O   1.0     0.148020     0.886285     0.517053  Biso 1.000000     O
    O   1.0     0.648031     0.386286     0.517052  Biso 1.000000     O
    O   1.0     0.648034     0.886285     0.517053  Biso 1.000000     O
    O   1.0     0.282314     0.013834     0.077241  Biso 1.000000     O
    O   1.0     0.282317     0.513833     0.077241  Biso 1.000000     O
    O   1.0     0.782328     0.013834     0.077241  Biso 1.000000     O
    O   1.0     0.782331     0.513833     0.077241  Biso 1.000000     O
    O   1.0     0.153261     0.066872     0.131645  Biso 1.000000     O
    O   1.0     0.153264     0.566871     0.131645  Biso 1.000000     O
    O   1.0     0.653275     0.066872     0.131645  Biso 1.000000     O
    O   1.0     0.653278     0.566871     0.131645  Biso 1.000000     O
    O   1.0     0.217422     0.122689     0.333042  Biso 1.000000     O
    O   1.0     0.217425     0.622688     0.333042  Biso 1.000000     O
    O   1.0     0.717436     0.122689     0.333042  Biso 1.000000     O
    O   1.0     0.717439     0.622688     0.333042  Biso 1.000000     O
    O   1.0     0.381498     0.078057     0.312598  Biso 1.000000     O
    O   1.0     0.381501     0.578056     0.312598  Biso 1.000000     O
    O   1.0     0.881512     0.078058     0.312598  Biso 1.000000     O
    O   1.0     0.881515     0.578056     0.312598  Biso 1.000000     O
    O   1.0     0.106333     0.024777     0.300111  Biso 1.000000     O
    O   1.0     0.106336     0.524776     0.300111  Biso 1.000000     O
    O   1.0     0.606347     0.024777     0.300111  Biso 1.000000     O
    O   1.0     0.606350     0.524776     0.300111  Biso 1.000000     O
    O   1.0     0.403495     0.366933     0.131433  Biso 1.000000     O
    O   1.0     0.403498     0.866931     0.131433  Biso 1.000000     O
    O   1.0     0.903509     0.366933     0.131433  Biso 1.000000     O
    O   1.0     0.903512     0.866932     0.131433  Biso 1.000000     O
    O   1.0     0.032298     0.447343     0.077101  Biso 1.000000     O
    O   1.0     0.032301     0.947342     0.077101  Biso 1.000000     O
    O   1.0     0.532312     0.447343     0.077101  Biso 1.000000     O
    O   1.0     0.532315     0.947342     0.077101  Biso 1.000000     O
    O   1.0     0.398081     0.355412     0.516891  Biso 1.000000     O
    O   1.0     0.398084     0.855411     0.516891  Biso 1.000000     O
    O   1.0     0.898095     0.355412     0.516891  Biso 1.000000     O
    O   1.0     0.898098     0.855411     0.516891  Biso 1.000000     O
    O   1.0     0.360461     0.266355     0.479091  Biso 1.000000     O
    O   1.0     0.360464     0.766354     0.479091  Biso 1.000000     O
    O   1.0     0.860475     0.266355     0.479091  Biso 1.000000     O
    O   1.0     0.860478     0.766354     0.479091  Biso 1.000000     O
    O   1.0     0.467495     0.210730     0.333017  Biso 1.000000     O
    O   1.0     0.467499     0.710729     0.333017  Biso 1.000000     O
    O   1.0     0.967509     0.210730     0.333016  Biso 1.000000     O
    O   1.0     0.967513     0.710729     0.333017  Biso 1.000000     O
    O   1.0     0.131545     0.265636     0.312533  Biso 1.000000     O
    O   1.0     0.131548     0.765635     0.312533  Biso 1.000000     O
    O   1.0     0.631559     0.265636     0.312533  Biso 1.000000     O
    O   1.0     0.631562     0.765635     0.312533  Biso 1.000000     O
    O   1.0     0.356361     0.325065     0.299972  Biso 1.000000     O
    O   1.0     0.356364     0.825064     0.299972  Biso 1.000000     O
    O   1.0     0.856375     0.325065     0.299972  Biso 1.000000     O
    O   1.0     0.856378     0.825064     0.299972  Biso 1.000000     O
    O   1.0     0.389387     0.005719     0.520844  Biso 1.000000     O
    O   1.0     0.389390     0.505718     0.520844  Biso 1.000000     O
    O   1.0     0.889401     0.005719     0.520844  Biso 1.000000     O
    O   1.0     0.889405     0.505718     0.520844  Biso 1.000000     O
    O   1.0     0.352006     0.113709     0.482952  Biso 1.000000     O
    O   1.0     0.352009     0.613708     0.482952  Biso 1.000000     O
    O   1.0     0.852020     0.113709     0.482952  Biso 1.000000     O
    O   1.0     0.852023     0.613708     0.482952  Biso 1.000000     O
    O   1.0     0.217709     0.486161     0.922762  Biso 1.000000     O
    O   1.0     0.217712     0.986160     0.922762  Biso 1.000000     O
    O   1.0     0.717723     0.486161     0.922762  Biso 1.000000     O
    O   1.0     0.717727     0.986160     0.922762  Biso 1.000000     O
    O   1.0     0.346763     0.433124     0.868359  Biso 1.000000     O
    O   1.0     0.346766     0.933123     0.868358  Biso 1.000000     O
    O   1.0     0.846777     0.433124     0.868359  Biso 1.000000     O
    O   1.0     0.846780     0.933123     0.868358  Biso 1.000000     O
    O   1.0     0.282600     0.377306     0.666962  Biso 1.000000     O
    O   1.0     0.282603     0.877305     0.666963  Biso 1.000000     O
    O   1.0     0.782614     0.377306     0.666963  Biso 1.000000     O
    O   1.0     0.782617     0.877305     0.666963  Biso 1.000000     O
    O   1.0     0.118524     0.421937     0.687406  Biso 1.000000     O
    O   1.0     0.118527     0.921936     0.687407  Biso 1.000000     O
    O   1.0     0.618538     0.421937     0.687406  Biso 1.000000     O
    O   1.0     0.618542     0.921936     0.687407  Biso 1.000000     O
    O   1.0     0.393689     0.475218     0.699892  Biso 1.000000     O
    O   1.0     0.393693     0.975217     0.699892  Biso 1.000000     O
    O   1.0     0.893703     0.475218     0.699892  Biso 1.000000     O
    O   1.0     0.893707     0.975217     0.699892  Biso 1.000000     O
   Ca   1.0     0.375061     0.452127     0.999971  Biso 1.000000    Ca
   Ca   1.0     0.375064     0.952126     0.999971  Biso 1.000000    Ca
   Ca   1.0     0.875075     0.452127     0.999971  Biso 1.000000    Ca
   Ca   1.0     0.875078     0.952126     0.999971  Biso 1.000000    Ca
   Ca   1.0     0.020836     0.091870     0.396236  Biso 1.000000    Ca
   Ca   1.0     0.020840     0.591869     0.396236  Biso 1.000000    Ca
   Ca   1.0     0.520851     0.091870     0.396236  Biso 1.000000    Ca
   Ca   1.0     0.520854     0.591869     0.396236  Biso 1.000000    Ca
   Ca   1.0     0.229190     0.290062     0.603728  Biso 1.000000    Ca
   Ca   1.0     0.229193     0.790061     0.603728  Biso 1.000000    Ca
   Ca   1.0     0.729204     0.290062     0.603728  Biso 1.000000    Ca
   Ca   1.0     0.729207     0.790061     0.603728  Biso 1.000000    Ca
   Ca   1.0     0.124963     0.047869     0.000033  Biso 1.000000    Ca
   Ca   1.0     0.124966     0.547867     0.000033  Biso 1.000000    Ca
   Ca   1.0     0.624977     0.047869     0.000033  Biso 1.000000    Ca
   Ca   1.0     0.624980     0.547867     0.000033  Biso 1.000000    Ca
   Ca   1.0     0.479186     0.408125     0.603768  Biso 1.000000    Ca
   Ca   1.0     0.479189     0.908124     0.603768  Biso 1.000000    Ca
   Ca   1.0     0.979200     0.408125     0.603768  Biso 1.000000    Ca
   Ca   1.0     0.979203     0.908124     0.603768  Biso 1.000000    Ca
   Ca   1.0     0.270832     0.209933     0.396276  Biso 1.000000    Ca
   Ca   1.0     0.270835     0.709932     0.396276  Biso 1.000000    Ca
   Ca   1.0     0.770846     0.209933     0.396276  Biso 1.000000    Ca
   Ca   1.0     0.770849     0.709932     0.396276  Biso 1.000000    Ca
