#======================================================================

# CRYSTAL DATA

#----------------------------------------------------------------------

data_VESTA_phase_1


_pd_phase_name                         MOF
_cell_length_a                         14.59400
_cell_length_b                         16.87700
_cell_length_c                         17.45900
_cell_angle_alpha                      90.00200
_cell_angle_beta                       95.55000
_cell_angle_gamma                      90.02800
_symmetry_space_group_name_H-M         "P 1"
_symmetry_Int_Tables_number            1

loop_
_symmetry_equiv_pos_as_xyz
   "x, y, z"

loop_
   _atom_site_label
   _atom_site_occupancy
   _atom_site_fract_x
   _atom_site_fract_y
   _atom_site_fract_z
   _atom_site_adp_type
   _atom_site_B_iso_or_equiv
   _atom_site_type_symbol
    H   1.0     0.298314     0.931356     0.422967  Biso 1.000000     H
    H   1.0     0.798301     0.931359     0.422967  Biso 1.000000     H
    H   1.0     0.466461     0.933844     0.443245  Biso 1.000000     H
    H   1.0     0.966442     0.933852     0.443245  Biso 1.000000     H
    H   1.0     0.405107     0.023345     0.460463  Biso 1.000000     H
    H   1.0     0.905091     0.023353     0.460467  Biso 1.000000     H
    H   1.0     0.115383     0.672734     0.424053  Biso 1.000000     H
    H   1.0     0.615370     0.672735     0.424052  Biso 1.000000     H
    H   1.0     0.128004     0.662517     0.325493  Biso 1.000000     H
    H   1.0     0.627991     0.662517     0.325493  Biso 1.000000     H
    H   1.0     0.107590     0.792064     0.538776  Biso 1.000000     H
    H   1.0     0.607580     0.792063     0.538775  Biso 1.000000     H
    H   1.0     0.365711     0.861929     0.659951  Biso 1.000000     H
    H   1.0     0.865697     0.861936     0.659953  Biso 1.000000     H
    H   1.0     0.223166     0.485450     0.188176  Biso 1.000000     H
    H   1.0     0.723155     0.485452     0.188176  Biso 1.000000     H
    H   1.0     0.202534     0.525778     0.355214  Biso 1.000000     H
    H   1.0     0.702521     0.525778     0.355215  Biso 1.000000     H
    H   1.0     0.175516     0.536677     0.451286  Biso 1.000000     H
    H   1.0     0.675503     0.536678     0.451286  Biso 1.000000     H
    H   1.0     0.446995     0.731616     0.483444  Biso 1.000000     H
    H   1.0     0.946983     0.731616     0.483443  Biso 1.000000     H
    H   1.0     0.285255     0.656485     0.516050  Biso 1.000000     H
    H   1.0     0.785242     0.656485     0.516050  Biso 1.000000     H
    H   1.0     0.267585     0.717537     0.279547  Biso 1.000000     H
    H   1.0     0.767572     0.717537     0.279547  Biso 1.000000     H
    H   1.0     0.005096     0.552765     0.398970  Biso 1.000000     H
    H   1.0     0.505083     0.552765     0.398970  Biso 1.000000     H
    H   1.0     0.053564     0.457909     0.387430  Biso 1.000000     H
    H   1.0     0.553552     0.457910     0.387430  Biso 1.000000     H
    H   1.0     0.080389     0.491539     0.250755  Biso 1.000000     H
    H   1.0     0.580378     0.491539     0.250756  Biso 1.000000     H
    H   1.0     0.029673     0.586144     0.261673  Biso 1.000000     H
    H   1.0     0.529661     0.586144     0.261673  Biso 1.000000     H
    H   1.0     0.469632     0.366542     0.263962  Biso 1.000000     H
    H   1.0     0.969619     0.366542     0.263964  Biso 1.000000     H
    H   1.0     0.359437     0.597544     0.231320  Biso 1.000000     H
    H   1.0     0.859425     0.597544     0.231320  Biso 1.000000     H
    H   1.0     0.451602     0.431331     0.077112  Biso 1.000000     H
    H   1.0     0.951584     0.431322     0.077114  Biso 1.000000     H
    H   1.0     0.283313     0.433815     0.056762  Biso 1.000000     H
    H   1.0     0.783299     0.433818     0.056763  Biso 1.000000     H
    H   1.0     0.344875     0.523272     0.039660  Biso 1.000000     H
    H   1.0     0.844865     0.523272     0.039659  Biso 1.000000     H
    H   1.0     0.134615     0.172705     0.076971  Biso 1.000000     H
    H   1.0     0.634606     0.172706     0.076970  Biso 1.000000     H
    H   1.0     0.121319     0.162126     0.175378  Biso 1.000000     H
    H   1.0     0.621309     0.162127     0.175377  Biso 1.000000     H
    H   1.0     0.142076     0.291905     0.961293  Biso 1.000000     H
    H   1.0     0.642072     0.291915     0.961292  Biso 1.000000     H
    H   1.0     0.384067     0.361920     0.840140  Biso 1.000000     H
    H   1.0     0.884055     0.361925     0.840138  Biso 1.000000     H
    H   1.0     0.026738     0.985506     0.312013  Biso 1.000000     H
    H   1.0     0.526727     0.985506     0.312012  Biso 1.000000     H
    H   1.0     0.047299     0.025400     0.145192  Biso 1.000000     H
    H   1.0     0.547287     0.025402     0.145191  Biso 1.000000     H
    H   1.0     0.074047     0.036692     0.049084  Biso 1.000000     H
    H   1.0     0.574035     0.036694     0.049083  Biso 1.000000     H
    H   1.0     0.303043     0.231177     0.016345  Biso 1.000000     H
    H   1.0     0.803028     0.231174     0.016348  Biso 1.000000     H
    H   1.0     0.464768     0.155733     0.984382  Biso 1.000000     H
    H   1.0     0.964752     0.155728     0.984384  Biso 1.000000     H
    H   1.0     0.481797     0.217713     0.220642  Biso 1.000000     H
    H   1.0     0.981785     0.217712     0.220643  Biso 1.000000     H
    H   1.0     0.244548     0.052971     0.101182  Biso 1.000000     H
    H   1.0     0.744537     0.052972     0.101181  Biso 1.000000     H
    H   1.0     0.196283     0.957925     0.112426  Biso 1.000000     H
    H   1.0     0.696271     0.957926     0.112424  Biso 1.000000     H
    H   1.0     0.169643    -0.009028     0.249290  Biso 1.000000     H
    H   1.0     0.669631    -0.009028     0.249288  Biso 1.000000     H
    H   1.0     0.220188     0.085733     0.238633  Biso 1.000000     H
    H   1.0     0.720176     0.085733     0.238632  Biso 1.000000     H
    H   1.0     0.280611     0.866247     0.235511  Biso 1.000000     H
    H   1.0     0.780599     0.866247     0.235510  Biso 1.000000     H
    H   1.0     0.390351     0.097431     0.268993  Biso 1.000000     H
    H   1.0     0.890338     0.097430     0.268993  Biso 1.000000     H
    H   1.0     0.201689     0.068600     0.577053  Biso 1.000000     H
    H   1.0     0.701674     0.068603     0.577055  Biso 1.000000     H
    H   1.0     0.033540     0.066110     0.556781  Biso 1.000000     H
    H   1.0     0.533529     0.066110     0.556773  Biso 1.000000     H
    H   1.0     0.094893     0.976611     0.539553  Biso 1.000000     H
    H   1.0     0.594882     0.976607     0.539559  Biso 1.000000     H
    H   1.0     0.384617     0.327222     0.575975  Biso 1.000000     H
    H   1.0     0.884603     0.327223     0.575975  Biso 1.000000     H
    H   1.0     0.371995     0.337438     0.674534  Biso 1.000000     H
    H   1.0     0.871981     0.337438     0.674534  Biso 1.000000     H
    H   1.0     0.392407     0.207896     0.461242  Biso 1.000000     H
    H   1.0     0.892390     0.207900     0.461242  Biso 1.000000     H
    H   1.0     0.134277     0.138040     0.340074  Biso 1.000000     H
    H   1.0     0.634276     0.138015     0.340065  Biso 1.000000     H
    H   1.0     0.276830     0.514512     0.811850  Biso 1.000000     H
    H   1.0     0.776819     0.514512     0.811849  Biso 1.000000     H
    H   1.0     0.297463     0.474176     0.644813  Biso 1.000000     H
    H   1.0     0.797451     0.474177     0.644814  Biso 1.000000     H
    H   1.0     0.324481     0.463278     0.548742  Biso 1.000000     H
    H   1.0     0.824468     0.463279     0.548743  Biso 1.000000     H
    H   1.0     0.053004     0.268339     0.516581  Biso 1.000000     H
    H   1.0     0.552989     0.268343     0.516582  Biso 1.000000     H
    H   1.0     0.214747     0.343467     0.483975  Biso 1.000000     H
    H   1.0     0.714732     0.343472     0.483975  Biso 1.000000     H
    H   1.0     0.232412     0.282420     0.720479  Biso 1.000000     H
    H   1.0     0.732399     0.282420     0.720478  Biso 1.000000     H
    H   1.0     0.494901     0.447191     0.601058  Biso 1.000000     H
    H   1.0     0.994889     0.447190     0.601058  Biso 1.000000     H
    H   1.0     0.446432     0.542046     0.612596  Biso 1.000000     H
    H   1.0     0.946421     0.542047     0.612597  Biso 1.000000     H
    H   1.0     0.419607     0.508419     0.749272  Biso 1.000000     H
    H   1.0     0.919596     0.508419     0.749272  Biso 1.000000     H
    H   1.0     0.470325     0.413814     0.738355  Biso 1.000000     H
    H   1.0     0.970313     0.413815     0.738355  Biso 1.000000     H
    H   1.0     0.030363     0.633418     0.736062  Biso 1.000000     H
    H   1.0     0.530351     0.633418     0.736062  Biso 1.000000     H
    H   1.0     0.140562     0.402417     0.768710  Biso 1.000000     H
    H   1.0     0.640550     0.402417     0.768709  Biso 1.000000     H
    H   1.0     0.048389     0.568624     0.922913  Biso 1.000000     H
    H   1.0     0.548377     0.568624     0.922913  Biso 1.000000     H
    H   1.0     0.216676     0.566136     0.943268  Biso 1.000000     H
    H   1.0     0.716668     0.566139     0.943267  Biso 1.000000     H
    H   1.0     0.155115     0.476679     0.960367  Biso 1.000000     H
    H   1.0     0.655103     0.476684     0.960366  Biso 1.000000     H
    H   1.0     0.365375     0.827249     0.923057  Biso 1.000000     H
    H   1.0     0.865364     0.827250     0.923057  Biso 1.000000     H
    H   1.0     0.378672     0.837828     0.824649  Biso 1.000000     H
    H   1.0     0.878661     0.837829     0.824650  Biso 1.000000     H
    H   1.0     0.357910     0.708048     0.038729  Biso 1.000000     H
    H   1.0     0.857901     0.708050     0.038729  Biso 1.000000     H
    H   1.0     0.115922     0.638034     0.159886  Biso 1.000000     H
    H   1.0     0.615912     0.638040     0.159884  Biso 1.000000     H
    H   1.0     0.473254     0.014455     0.688013  Biso 1.000000     H
    H   1.0     0.973242     0.014455     0.688014  Biso 1.000000     H
    H   1.0     0.452694     0.974552     0.854836  Biso 1.000000     H
    H   1.0     0.952682     0.974554     0.854836  Biso 1.000000     H
    H   1.0     0.425946     0.963261     0.950943  Biso 1.000000     H
    H   1.0     0.925934     0.963262     0.950943  Biso 1.000000     H
    H   1.0     0.196951     0.768779     0.983680  Biso 1.000000     H
    H   1.0     0.696939     0.768777     0.983680  Biso 1.000000     H
    H   1.0     0.035226     0.844221     0.015645  Biso 1.000000     H
    H   1.0     0.535213     0.844219     0.015645  Biso 1.000000     H
    H   1.0     0.018196     0.782245     0.779384  Biso 1.000000     H
    H   1.0     0.518184     0.782244     0.779384  Biso 1.000000     H
    H   1.0     0.255444     0.946982     0.898845  Biso 1.000000     H
    H   1.0     0.755432     0.946983     0.898845  Biso 1.000000     H
    H   1.0     0.303710     0.042029     0.887605  Biso 1.000000     H
    H   1.0     0.803698     0.042030     0.887605  Biso 1.000000     H
    H   1.0     0.330351     0.000000     0.750739  Biso 1.000000     H
    H   1.0     0.830338     0.000000     0.750739  Biso 1.000000     H
    H   1.0     0.279804     0.914226     0.761393  Biso 1.000000     H
    H   1.0     0.779791     0.914226     0.761393  Biso 1.000000     H
    H   1.0     0.219383     0.133713     0.764514  Biso 1.000000     H
    H   1.0     0.719370     0.133713     0.764516  Biso 1.000000     H
    H   1.0     0.109641     0.902531     0.731036  Biso 1.000000     H
    H   1.0     0.609628     0.902531     0.731034  Biso 1.000000     H
    C   1.0     0.281795     0.901688     0.475176  Biso 1.000000     C
    C   1.0     0.781784     0.901688     0.475176  Biso 1.000000     C
    C   1.0     0.340719     0.903655     0.543338  Biso 1.000000     C
    C   1.0     0.840707     0.903657     0.543338  Biso 1.000000     C
    C   1.0     0.455017     0.979665     0.486087  Biso 1.000000     C
    C   1.0     0.955002     0.979673     0.486088  Biso 1.000000     C
    C   1.0     0.156613     0.643332     0.382940  Biso 1.000000     C
    C   1.0     0.656600     0.643333     0.382940  Biso 1.000000     C
    C   1.0     0.173366     0.822328     0.539417  Biso 1.000000     C
    C   1.0     0.673358     0.822323     0.539415  Biso 1.000000     C
    C   1.0     0.317412     0.862570     0.608438  Biso 1.000000     C
    C   1.0     0.817400     0.862571     0.608438  Biso 1.000000     C
    C   1.0     0.198247     0.860140     0.473284  Biso 1.000000     C
    C   1.0     0.698234     0.860142     0.473284  Biso 1.000000     C
    C   1.0     0.135952     0.856165     0.399248  Biso 1.000000     C
    C   1.0     0.635940     0.856166     0.399248  Biso 1.000000     C
    C   1.0     0.293824     0.478007     0.212365  Biso 1.000000     C
    C   1.0     0.793812     0.478008     0.212365  Biso 1.000000     C
    C   1.0     0.233366     0.822838     0.607102  Biso 1.000000     C
    C   1.0     0.733353     0.822841     0.607103  Biso 1.000000     C
    C   1.0     0.153283     0.553124     0.391329  Biso 1.000000     C
    C   1.0     0.653270     0.553125     0.391329  Biso 1.000000     C
    C   1.0     0.206414     0.780309     0.677133  Biso 1.000000     C
    C   1.0     0.706403     0.780312     0.677134  Biso 1.000000     C
    C   1.0     0.386410     0.715629     0.445829  Biso 1.000000     C
    C   1.0     0.886397     0.715629     0.445829  Biso 1.000000     C
    C   1.0     0.307172     0.678332     0.462454  Biso 1.000000     C
    C   1.0     0.807159     0.678332     0.462454  Biso 1.000000     C
    C   1.0     0.295511     0.710787     0.338989  Biso 1.000000     C
    C   1.0     0.795498     0.710787     0.338989  Biso 1.000000     C
    C   1.0     0.056314     0.520104     0.368815  Biso 1.000000     C
    C   1.0     0.556301     0.520104     0.368815  Biso 1.000000     C
    C   1.0     0.030679     0.524589     0.281750  Biso 1.000000     C
    C   1.0     0.530667     0.524589     0.281750  Biso 1.000000     C
    C   1.0     0.419823     0.413172     0.250635  Biso 1.000000     C
    C   1.0     0.919810     0.413173     0.250636  Biso 1.000000     C
    C   1.0     0.360315     0.533413     0.233301  Biso 1.000000     C
    C   1.0     0.860303     0.533414     0.233301  Biso 1.000000     C
    C   1.0     0.468060     0.401625     0.024908  Biso 1.000000     C
    C   1.0     0.968049     0.401628     0.024907  Biso 1.000000     C
    C   1.0     0.409136     0.403595     0.956766  Biso 1.000000     C
    C   1.0     0.909126     0.403601     0.956764  Biso 1.000000     C
    C   1.0     0.294912     0.479647     0.013963  Biso 1.000000     C
    C   1.0     0.794900     0.479648     0.013964  Biso 1.000000     C
    C   1.0     0.093072     0.143121     0.117763  Biso 1.000000     C
    C   1.0     0.593062     0.143122     0.117762  Biso 1.000000     C
    C   1.0     0.076355     0.322202     0.960659  Biso 1.000000     C
    C   1.0     0.576342     0.322197     0.960661  Biso 1.000000     C
    C   1.0     0.432365     0.362507     0.891655  Biso 1.000000     C
    C   1.0     0.932355     0.362513     0.891652  Biso 1.000000     C
    C   1.0     0.051558     0.360048     0.026784  Biso 1.000000     C
    C   1.0     0.551555     0.360060     0.026781  Biso 1.000000     C
    C   1.0     0.113927     0.356133     0.100783  Biso 1.000000     C
    C   1.0     0.613923     0.356143     0.100780  Biso 1.000000     C
    C   1.0     0.456119     0.977967     0.287711  Biso 1.000000     C
    C   1.0     0.956107     0.977967     0.287712  Biso 1.000000     C
    C   1.0     0.016349     0.322743     0.892975  Biso 1.000000     C
    C   1.0     0.516341     0.322746     0.892975  Biso 1.000000     C
    C   1.0     0.096422     0.052956     0.109068  Biso 1.000000     C
    C   1.0     0.596411     0.052957     0.109066  Biso 1.000000     C
    C   1.0     0.043240     0.280290     0.822903  Biso 1.000000     C
    C   1.0     0.543231     0.280292     0.822903  Biso 1.000000     C
    C   1.0     0.363503     0.215304     0.054142  Biso 1.000000     C
    C   1.0     0.863488     0.215301     0.054144  Biso 1.000000     C
    C   1.0     0.442741     0.177866     0.037817  Biso 1.000000     C
    C   1.0     0.942726     0.177863     0.037819  Biso 1.000000     C
    C   1.0     0.454098     0.210782     0.161160  Biso 1.000000     C
    C   1.0     0.954085     0.210781     0.161161  Biso 1.000000     C
    C   1.0     0.193469     0.020051     0.131294  Biso 1.000000     C
    C   1.0     0.693457     0.020052     0.131293  Biso 1.000000     C
    C   1.0     0.219243     0.024252     0.218348  Biso 1.000000     C
    C   1.0     0.719231     0.024251     0.218347  Biso 1.000000     C
    C   1.0     0.330289     0.912970     0.249081  Biso 1.000000     C
    C   1.0     0.830278     0.912970     0.249080  Biso 1.000000     C
    C   1.0     0.389566     0.033305     0.266844  Biso 1.000000     C
    C   1.0     0.889553     0.033305     0.266845  Biso 1.000000     C
    C   1.0     0.218207     0.098268     0.524842  Biso 1.000000     C
    C   1.0     0.718189     0.098275     0.524846  Biso 1.000000     C
    C   1.0     0.159280     0.096302     0.456682  Biso 1.000000     C
    C   1.0     0.659266     0.096303     0.456683  Biso 1.000000     C
    C   1.0     0.044981     0.020293     0.513934  Biso 1.000000     C
    C   1.0     0.544972     0.020286     0.513933  Biso 1.000000     C
    C   1.0     0.343387     0.356623     0.617087  Biso 1.000000     C
    C   1.0     0.843373     0.356624     0.617087  Biso 1.000000     C
    C   1.0     0.326634     0.177627     0.460599  Biso 1.000000     C
    C   1.0     0.826609     0.177644     0.460604  Biso 1.000000     C
    C   1.0     0.182584     0.137392     0.391582  Biso 1.000000     C
    C   1.0     0.682571     0.137388     0.391581  Biso 1.000000     C
    C   1.0     0.301752     0.139819     0.526734  Biso 1.000000     C
    C   1.0     0.801739     0.139821     0.526734  Biso 1.000000     C
    C   1.0     0.364045     0.143800     0.600770  Biso 1.000000     C
    C   1.0     0.864033     0.143800     0.600770  Biso 1.000000     C
    C   1.0     0.206173     0.521955     0.787661  Biso 1.000000     C
    C   1.0     0.706162     0.521955     0.787661  Biso 1.000000     C
    C   1.0     0.266626     0.177130     0.392919  Biso 1.000000     C
    C   1.0     0.766618     0.177118     0.392914  Biso 1.000000     C
    C   1.0     0.346714     0.446830     0.608699  Biso 1.000000     C
    C   1.0     0.846702     0.446832     0.608699  Biso 1.000000     C
    C   1.0     0.293573     0.219664     0.322888  Biso 1.000000     C
    C   1.0     0.793562     0.219652     0.322883  Biso 1.000000     C
    C   1.0     0.113590     0.284326     0.554195  Biso 1.000000     C
    C   1.0     0.613575     0.284329     0.554196  Biso 1.000000     C
    C   1.0     0.192829     0.321622     0.537571  Biso 1.000000     C
    C   1.0     0.692814     0.321625     0.537571  Biso 1.000000     C
    C   1.0     0.204487     0.289169     0.661036  Biso 1.000000     C
    C   1.0     0.704474     0.289170     0.661036  Biso 1.000000     C
    C   1.0     0.443683     0.479852     0.631213  Biso 1.000000     C
    C   1.0     0.943671     0.479852     0.631213  Biso 1.000000     C
    C   1.0     0.469318     0.475369     0.718278  Biso 1.000000     C
    C   1.0     0.969306     0.475370     0.718278  Biso 1.000000     C
    C   1.0     0.080174     0.586788     0.749389  Biso 1.000000     C
    C   1.0     0.580162     0.586788     0.749389  Biso 1.000000     C
    C   1.0     0.139683     0.466548     0.766727  Biso 1.000000     C
    C   1.0     0.639671     0.466548     0.766726  Biso 1.000000     C
    C   1.0     0.031928     0.598328     0.975117  Biso 1.000000     C
    C   1.0     0.531916     0.598328     0.975117  Biso 1.000000     C
    C   1.0     0.090851     0.596356     0.043261  Biso 1.000000     C
    C   1.0     0.590839     0.596357     0.043260  Biso 1.000000     C
    C   1.0     0.205076     0.520304     0.986065  Biso 1.000000     C
    C   1.0     0.705066     0.520308     0.986064  Biso 1.000000     C
    C   1.0     0.406919     0.856833     0.882265  Biso 1.000000     C
    C   1.0     0.906907     0.856834     0.882265  Biso 1.000000     C
    C   1.0     0.423636     0.677759     0.039362  Biso 1.000000     C
    C   1.0     0.923627     0.677762     0.039362  Biso 1.000000     C
    C   1.0     0.067623     0.637447     0.108371  Biso 1.000000     C
    C   1.0     0.567611     0.637449     0.108370  Biso 1.000000     C
    C   1.0     0.448426     0.639900     0.973241  Biso 1.000000     C
    C   1.0     0.948415     0.639901     0.973241  Biso 1.000000     C
    C   1.0     0.386062     0.643824     0.899239  Biso 1.000000     C
    C   1.0     0.886051     0.643825     0.899239  Biso 1.000000     C
    C   1.0     0.043874     0.021995     0.712315  Biso 1.000000     C
    C   1.0     0.543861     0.021995     0.712314  Biso 1.000000     C
    C   1.0     0.483639     0.677217     0.107046  Biso 1.000000     C
    C   1.0     0.983627     0.677215     0.107047  Biso 1.000000     C
    C   1.0     0.403570     0.946997     0.890960  Biso 1.000000     C
    C   1.0     0.903558     0.946999     0.890960  Biso 1.000000     C
    C   1.0     0.456750     0.719678     0.177115  Biso 1.000000     C
    C   1.0     0.956739     0.719676     0.177116  Biso 1.000000     C
    C   1.0     0.136491     0.784652     0.945884  Biso 1.000000     C
    C   1.0     0.636479     0.784651     0.945884  Biso 1.000000     C
    C   1.0     0.057253     0.822089     0.962210  Biso 1.000000     C
    C   1.0     0.557240     0.822087     0.962210  Biso 1.000000     C
    C   1.0     0.045895     0.789175     0.838867  Biso 1.000000     C
    C   1.0     0.545882     0.789174     0.838867  Biso 1.000000     C
    C   1.0     0.306524     0.979904     0.868734  Biso 1.000000     C
    C   1.0     0.806511     0.979904     0.868734  Biso 1.000000     C
    C   1.0     0.280749     0.975708     0.781680  Biso 1.000000     C
    C   1.0     0.780736     0.975708     0.781680  Biso 1.000000     C
    C   1.0     0.169704     0.086991     0.750944  Biso 1.000000     C
    C   1.0     0.669691     0.086991     0.750946  Biso 1.000000     C
    C   1.0     0.110426     0.966656     0.733183  Biso 1.000000     C
    C   1.0     0.610414     0.966656     0.733183  Biso 1.000000     C
    N   1.0     0.250145     0.675712     0.394231  Biso 1.000000     N
    N   1.0     0.750133     0.675712     0.394231  Biso 1.000000     N
    N   1.0     0.378521     0.735400     0.368405  Biso 1.000000     N
    N   1.0     0.878509     0.735400     0.368405  Biso 1.000000     N
    N   1.0     0.331820     0.403060     0.223553  Biso 1.000000     N
    N   1.0     0.831807     0.403061     0.223553  Biso 1.000000     N
    N   1.0     0.439644     0.491447     0.257478  Biso 1.000000     N
    N   1.0     0.939632     0.491447     0.257479  Biso 1.000000     N
    N   1.0     0.499567     0.175450     0.106155  Biso 1.000000     N
    N   1.0     0.999553     0.175448     0.106156  Biso 1.000000     N
    N   1.0     0.371212     0.235360     0.131496  Biso 1.000000     N
    N   1.0     0.871199     0.235359     0.131497  Biso 1.000000     N
    N   1.0     0.418263     0.902971     0.276267  Biso 1.000000     N
    N   1.0     0.918251     0.902971     0.276267  Biso 1.000000     N
    N   1.0     0.310344     0.991219     0.242441  Biso 1.000000     N
    N   1.0     0.810332     0.991219     0.242441  Biso 1.000000     N
    N   1.0     0.249854     0.324242     0.605795  Biso 1.000000     N
    N   1.0     0.749840     0.324244     0.605795  Biso 1.000000     N
    N   1.0     0.121477     0.264558     0.631619  Biso 1.000000     N
    N   1.0     0.621463     0.264559     0.631619  Biso 1.000000     N
    N   1.0     0.168177     0.596902     0.776471  Biso 1.000000     N
    N   1.0     0.668165     0.596902     0.776471  Biso 1.000000     N
    N   1.0     0.060353     0.508513     0.742549  Biso 1.000000     N
    N   1.0     0.560341     0.508513     0.742548  Biso 1.000000     N
    N   1.0     0.000426     0.824505     0.893872  Biso 1.000000     N
    N   1.0     0.500413     0.824504     0.893872  Biso 1.000000     N
    N   1.0     0.128781     0.764598     0.868530  Biso 1.000000     N
    N   1.0     0.628769     0.764596     0.868530  Biso 1.000000     N
    N   1.0     0.081730     0.096991     0.723758  Biso 1.000000     N
    N   1.0     0.581717     0.096991     0.723758  Biso 1.000000     N
    N   1.0     0.189649     0.008741     0.757586  Biso 1.000000     N
    N   1.0     0.689636     0.008742     0.757586  Biso 1.000000     N
    O   1.0     0.062596     0.812728     0.403431  Biso 1.000000     O
    O   1.0     0.562586     0.812726     0.403430  Biso 1.000000     O
    O   1.0     0.422591     0.943677     0.552836  Biso 1.000000     O
    O   1.0     0.922574     0.943686     0.552837  Biso 1.000000     O
    O   1.0     0.125328     0.756967     0.680016  Biso 1.000000     O
    O   1.0     0.625318     0.756965     0.680015  Biso 1.000000     O
    O   1.0     0.155793     0.891740     0.340396  Biso 1.000000     O
    O   1.0     0.655783     0.891738     0.340395  Biso 1.000000     O
    O   1.0     0.271694     0.770562     0.733045  Biso 1.000000     O
    O   1.0     0.771684     0.770561     0.733044  Biso 1.000000     O
    O   1.0     0.187253     0.312718     0.096572  Biso 1.000000     O
    O   1.0     0.687238     0.312714     0.096574  Biso 1.000000     O
    O   1.0     0.327352     0.443669     0.947245  Biso 1.000000     O
    O   1.0     0.827334     0.443663     0.947246  Biso 1.000000     O
    O   1.0     0.124321     0.257000     0.819971  Biso 1.000000     O
    O   1.0     0.624311     0.256999     0.819973  Biso 1.000000     O
    O   1.0     0.094188     0.391760     0.159633  Biso 1.000000     O
    O   1.0     0.594173     0.391756     0.159635  Biso 1.000000     O
    O   1.0     0.477931     0.270541     0.766986  Biso 1.000000     O
    O   1.0     0.977917     0.270544     0.766984  Biso 1.000000     O
    O   1.0     0.437400     0.187239     0.596586  Biso 1.000000     O
    O   1.0     0.937384     0.187245     0.596588  Biso 1.000000     O
    O   1.0     0.077402     0.056289     0.447187  Biso 1.000000     O
    O   1.0     0.577404     0.056266     0.447182  Biso 1.000000     O
    O   1.0     0.374661     0.243000     0.320000  Biso 1.000000     O
    O   1.0     0.874644     0.243008     0.320003  Biso 1.000000     O
    O   1.0     0.344204     0.108227     0.659624  Biso 1.000000     O
    O   1.0     0.844189     0.108231     0.659625  Biso 1.000000     O
    O   1.0     0.228293     0.229406     0.266975  Biso 1.000000     O
    O   1.0     0.728275     0.229413     0.266979  Biso 1.000000     O
    O   1.0     0.312748     0.687254     0.903444  Biso 1.000000     O
    O   1.0     0.812737     0.687255     0.903444  Biso 1.000000     O
    O   1.0     0.172635     0.556282     0.052783  Biso 1.000000     O
    O   1.0     0.672626     0.556287     0.052782  Biso 1.000000     O
    O   1.0     0.375670     0.742972     0.180045  Biso 1.000000     O
    O   1.0     0.875660     0.742973     0.180044  Biso 1.000000     O
    O   1.0     0.405812     0.608211     0.840384  Biso 1.000000     O
    O   1.0     0.905800     0.608211     0.840384  Biso 1.000000     O
    O   1.0     0.022063     0.729428     0.233034  Biso 1.000000     O
    O   1.0     0.522049     0.729427     0.233034  Biso 1.000000     O
   Zn   1.0     0.472770     0.798349     0.312631  Biso 1.000000    Zn
   Zn   1.0     0.972758     0.798349     0.312631  Biso 1.000000    Zn
   Zn   1.0     0.277188     0.298403     0.187277  Biso 1.000000    Zn
   Zn   1.0     0.777175     0.298403     0.187278  Biso 1.000000    Zn
   Zn   1.0     0.027224     0.201618     0.687390  Biso 1.000000    Zn
   Zn   1.0     0.527212     0.201618     0.687390  Biso 1.000000    Zn
   Zn   1.0     0.222807     0.701566     0.812743  Biso 1.000000    Zn
   Zn   1.0     0.722795     0.701565     0.812742  Biso 1.000000    Zn
