#======================================================================

# CRYSTAL DATA

#----------------------------------------------------------------------

data_VESTA_phase_1


_pd_phase_name                         MOF
_cell_length_a                         20.24300
_cell_length_b                         22.89600
_cell_length_c                         13.99000
_cell_angle_alpha                      90.00500
_cell_angle_beta                       100.93800
_cell_angle_gamma                      89.99600
_symmetry_space_group_name_H-M         "P 1"
_symmetry_Int_Tables_number            1

loop_
_symmetry_equiv_pos_as_xyz
   "x, y, z"

loop_
   _atom_site_label
   _atom_site_occupancy
   _atom_site_fract_x
   _atom_site_fract_y
   _atom_site_fract_z
   _atom_site_adp_type
   _atom_site_B_iso_or_equiv
   _atom_site_type_symbol
    H   1.0     0.252438     0.401863     0.729989  Biso 1.000000     H
    H   1.0     0.252429     0.901865     0.730002  Biso 1.000000     H
    H   1.0     0.752511     0.401861     0.729943  Biso 1.000000     H
    H   1.0     0.752426     0.901865     0.730005  Biso 1.000000     H
    H   1.0     0.256031     0.293705     0.736737  Biso 1.000000     H
    H   1.0     0.256020     0.793707     0.736750  Biso 1.000000     H
    H   1.0     0.756120     0.293703     0.736672  Biso 1.000000     H
    H   1.0     0.756014     0.793707     0.736757  Biso 1.000000     H
    H   1.0     0.123597     0.293528     0.454228  Biso 1.000000     H
    H   1.0     0.123611     0.793533     0.454220  Biso 1.000000     H
    H   1.0     0.623516     0.293532     0.454300  Biso 1.000000     H
    H   1.0     0.623628     0.793532     0.454208  Biso 1.000000     H
    H   1.0     0.125712     0.401510     0.461623  Biso 1.000000     H
    H   1.0     0.125725     0.901514     0.461618  Biso 1.000000     H
    H   1.0     0.625649     0.401515     0.461689  Biso 1.000000     H
    H   1.0     0.625742     0.901513     0.461604  Biso 1.000000     H
    H   1.0     0.247579     0.401854     0.269980  Biso 1.000000     H
    H   1.0     0.247626     0.901859     0.269951  Biso 1.000000     H
    H   1.0     0.747560     0.401854     0.269995  Biso 1.000000     H
    H   1.0     0.747729     0.901862     0.269883  Biso 1.000000     H
    H   1.0     0.243983     0.293695     0.263239  Biso 1.000000     H
    H   1.0     0.244037     0.793701     0.263198  Biso 1.000000     H
    H   1.0     0.743953     0.293696     0.263265  Biso 1.000000     H
    H   1.0     0.744166     0.793704     0.263101  Biso 1.000000     H
    H   1.0     0.376403     0.293537     0.545760  Biso 1.000000     H
    H   1.0     0.376358     0.793538     0.545800  Biso 1.000000     H
    H   1.0     0.876440     0.293540     0.545732  Biso 1.000000     H
    H   1.0     0.876236     0.793534     0.545905  Biso 1.000000     H
    H   1.0     0.374293     0.401518     0.538356  Biso 1.000000     H
    H   1.0     0.374261     0.901519     0.538391  Biso 1.000000     H
    H   1.0     0.874327     0.401521     0.538327  Biso 1.000000     H
    H   1.0     0.874163     0.901514     0.538487  Biso 1.000000     H
    H   1.0     0.247528     0.098138     0.270023  Biso 1.000000     H
    H   1.0     0.247487     0.598143     0.270053  Biso 1.000000     H
    H   1.0     0.747563     0.098139     0.270003  Biso 1.000000     H
    H   1.0     0.747380     0.598146     0.270127  Biso 1.000000     H
    H   1.0     0.243920     0.206296     0.263290  Biso 1.000000     H
    H   1.0     0.243871     0.706301     0.263329  Biso 1.000000     H
    H   1.0     0.743966     0.206296     0.263257  Biso 1.000000     H
    H   1.0     0.743740     0.706304     0.263435  Biso 1.000000     H
    H   1.0     0.376457     0.206470     0.545717  Biso 1.000000     H
    H   1.0     0.376510     0.706471     0.545673  Biso 1.000000     H
    H   1.0     0.876422     0.206473     0.545749  Biso 1.000000     H
    H   1.0     0.876647     0.706466     0.545560  Biso 1.000000     H
    H   1.0     0.374336     0.098487     0.538323  Biso 1.000000     H
    H   1.0     0.374376     0.598489     0.538285  Biso 1.000000     H
    H   1.0     0.874303     0.098491     0.538358  Biso 1.000000     H
    H   1.0     0.874487     0.598483     0.538181  Biso 1.000000     H
    H   1.0     0.252470     0.098146     0.729972  Biso 1.000000     H
    H   1.0     0.252470     0.598149     0.729970  Biso 1.000000     H
    H   1.0     0.752399     0.098144     0.730022  Biso 1.000000     H
    H   1.0     0.752485     0.598149     0.729962  Biso 1.000000     H
    H   1.0     0.256080     0.206305     0.736700  Biso 1.000000     H
    H   1.0     0.256080     0.706307     0.736702  Biso 1.000000     H
    H   1.0     0.755994     0.206303     0.736770  Biso 1.000000     H
    H   1.0     0.756099     0.706306     0.736689  Biso 1.000000     H
    H   1.0     0.123543     0.206462     0.454274  Biso 1.000000     H
    H   1.0     0.123549     0.706466     0.454270  Biso 1.000000     H
    H   1.0     0.623635     0.206466     0.454200  Biso 1.000000     H
    H   1.0     0.623534     0.706465     0.454286  Biso 1.000000     H
    H   1.0     0.125659     0.098481     0.461675  Biso 1.000000     H
    H   1.0     0.125668     0.598485     0.461666  Biso 1.000000     H
    H   1.0     0.625734     0.098485     0.461606  Biso 1.000000     H
    H   1.0     0.625653     0.598484     0.461683  Biso 1.000000     H
    H   1.0     0.455978    -0.000007     0.590070  Biso 1.000000     H
    H   1.0     0.455980     0.500009     0.590069  Biso 1.000000     H
    H   1.0     0.955975    -0.000012     0.590073  Biso 1.000000     H
    H   1.0     0.955990     0.499992     0.590066  Biso 1.000000     H
    H   1.0     0.079023    -0.000013     0.877039  Biso 1.000000     H
    H   1.0     0.079029     0.500011     0.877037  Biso 1.000000     H
    H   1.0     0.579029    -0.000018     0.877038  Biso 1.000000     H
    H   1.0     0.579029     0.500007     0.877038  Biso 1.000000     H
    H   1.0     0.362697    -0.000019     0.843309  Biso 1.000000     H
    H   1.0     0.362697     0.500011     0.843305  Biso 1.000000     H
    H   1.0     0.862697    -0.000008     0.843315  Biso 1.000000     H
    H   1.0     0.862703     0.500018     0.843298  Biso 1.000000     H
    H   1.0     0.044026    -0.000014     0.409918  Biso 1.000000     H
    H   1.0     0.044026     0.499986     0.409909  Biso 1.000000     H
    H   1.0     0.544037    -0.000005     0.409916  Biso 1.000000     H
    H   1.0     0.544022     0.500009     0.409912  Biso 1.000000     H
    H   1.0     0.420983    -0.000006     0.122950  Biso 1.000000     H
    H   1.0     0.420976     0.500004     0.122941  Biso 1.000000     H
    H   1.0     0.920983    -0.000011     0.122951  Biso 1.000000     H
    H   1.0     0.920983     0.500007     0.122940  Biso 1.000000     H
    H   1.0     0.137308    -0.000012     0.156681  Biso 1.000000     H
    H   1.0     0.137309     0.500002     0.156673  Biso 1.000000     H
    H   1.0     0.637315    -0.000006     0.156675  Biso 1.000000     H
    H   1.0     0.637309     0.499996     0.156680  Biso 1.000000     H
    C   1.0     0.224865     0.375543     0.670657  Biso 1.000000     C
    C   1.0     0.224860     0.875545     0.670666  Biso 1.000000     C
    C   1.0     0.724908     0.375542     0.670633  Biso 1.000000     C
    C   1.0     0.724861     0.875545     0.670665  Biso 1.000000     C
    C   1.0     0.226417     0.314883     0.673146  Biso 1.000000     C
    C   1.0     0.226413     0.814886     0.673154  Biso 1.000000     C
    C   1.0     0.726465     0.314882     0.673115  Biso 1.000000     C
    C   1.0     0.726411     0.814885     0.673157  Biso 1.000000     C
    C   1.0     0.190193     0.282422     0.595197  Biso 1.000000     C
    C   1.0     0.190194     0.782425     0.595199  Biso 1.000000     C
    C   1.0     0.690197     0.282423     0.595199  Biso 1.000000     C
    C   1.0     0.690200     0.782424     0.595197  Biso 1.000000     C
    C   1.0     0.153408     0.314781     0.517572  Biso 1.000000     C
    C   1.0     0.153418     0.814785     0.517568  Biso 1.000000     C
    C   1.0     0.653370     0.314784     0.517611  Biso 1.000000     C
    C   1.0     0.653428     0.814784     0.517561  Biso 1.000000     C
    C   1.0     0.154170     0.375417     0.520466  Biso 1.000000     C
    C   1.0     0.154178     0.875421     0.520466  Biso 1.000000     C
    C   1.0     0.654136     0.375420     0.520506  Biso 1.000000     C
    C   1.0     0.654191     0.875420     0.520456  Biso 1.000000     C
    C   1.0     0.275150     0.375538     0.329315  Biso 1.000000     C
    C   1.0     0.275179     0.875542     0.329299  Biso 1.000000     C
    C   1.0     0.775141     0.375539     0.329323  Biso 1.000000     C
    C   1.0     0.775239     0.875543     0.329264  Biso 1.000000     C
    C   1.0     0.273593     0.314878     0.326833  Biso 1.000000     C
    C   1.0     0.273622     0.814882     0.326814  Biso 1.000000     C
    C   1.0     0.773584     0.314879     0.326842  Biso 1.000000     C
    C   1.0     0.773689     0.814883     0.326767  Biso 1.000000     C
    C   1.0     0.309813     0.282421     0.404786  Biso 1.000000     C
    C   1.0     0.309818     0.782425     0.404785  Biso 1.000000     C
    C   1.0     0.809817     0.282423     0.404785  Biso 1.000000     C
    C   1.0     0.809821     0.782424     0.404787  Biso 1.000000     C
    C   1.0     0.346594     0.314786     0.482413  Biso 1.000000     C
    C   1.0     0.346572     0.814788     0.482435  Biso 1.000000     C
    C   1.0     0.846619     0.314788     0.482394  Biso 1.000000     C
    C   1.0     0.846512     0.814785     0.482492  Biso 1.000000     C
    C   1.0     0.345837     0.375421     0.479512  Biso 1.000000     C
    C   1.0     0.345822     0.875423     0.479531  Biso 1.000000     C
    C   1.0     0.845858     0.375424     0.479494  Biso 1.000000     C
    C   1.0     0.845767     0.875420     0.479589  Biso 1.000000     C
    C   1.0     0.275118     0.124457     0.329343  Biso 1.000000     C
    C   1.0     0.275094     0.624462     0.329360  Biso 1.000000     C
    C   1.0     0.775139     0.124459     0.329332  Biso 1.000000     C
    C   1.0     0.775035     0.624463     0.329398  Biso 1.000000     C
    C   1.0     0.273563     0.185117     0.326858  Biso 1.000000     C
    C   1.0     0.273540     0.685122     0.326875  Biso 1.000000     C
    C   1.0     0.773585     0.185118     0.326845  Biso 1.000000     C
    C   1.0     0.773475     0.685123     0.326926  Biso 1.000000     C
    C   1.0     0.309810     0.217578     0.404789  Biso 1.000000     C
    C   1.0     0.309812     0.717581     0.404788  Biso 1.000000     C
    C   1.0     0.809815     0.217580     0.404789  Biso 1.000000     C
    C   1.0     0.809815     0.717580     0.404786  Biso 1.000000     C
    C   1.0     0.346624     0.185218     0.482389  Biso 1.000000     C
    C   1.0     0.346653     0.685220     0.482365  Biso 1.000000     C
    C   1.0     0.846604     0.185220     0.482411  Biso 1.000000     C
    C   1.0     0.846725     0.685217     0.482303  Biso 1.000000     C
    C   1.0     0.345859     0.124581     0.479496  Biso 1.000000     C
    C   1.0     0.345881     0.624584     0.479473  Biso 1.000000     C
    C   1.0     0.845842     0.124584     0.479516  Biso 1.000000     C
    C   1.0     0.845946     0.624580     0.479412  Biso 1.000000     C
    C   1.0     0.224879     0.124462     0.670652  Biso 1.000000     C
    C   1.0     0.224882     0.624465     0.670649  Biso 1.000000     C
    C   1.0     0.724841     0.124461     0.670678  Biso 1.000000     C
    C   1.0     0.724890     0.624464     0.670647  Biso 1.000000     C
    C   1.0     0.226438     0.185122     0.673132  Biso 1.000000     C
    C   1.0     0.226438     0.685125     0.673134  Biso 1.000000     C
    C   1.0     0.726395     0.185121     0.673166  Biso 1.000000     C
    C   1.0     0.726450     0.685124     0.673127  Biso 1.000000     C
    C   1.0     0.190190     0.217578     0.595201  Biso 1.000000     C
    C   1.0     0.190194     0.717581     0.595200  Biso 1.000000     C
    C   1.0     0.690194     0.217579     0.595199  Biso 1.000000     C
    C   1.0     0.690196     0.717581     0.595200  Biso 1.000000     C
    C   1.0     0.153377     0.185213     0.517601  Biso 1.000000     C
    C   1.0     0.153380     0.685218     0.517599  Biso 1.000000     C
    C   1.0     0.653425     0.185216     0.517561  Biso 1.000000     C
    C   1.0     0.653374     0.685216     0.517607  Biso 1.000000     C
    C   1.0     0.154137     0.124578     0.520501  Biso 1.000000     C
    C   1.0     0.154144     0.624582     0.520494  Biso 1.000000     C
    C   1.0     0.654181     0.124581     0.520459  Biso 1.000000     C
    C   1.0     0.654135     0.624581     0.520506  Biso 1.000000     C
    C   1.0     0.333217    -0.000003     0.644863  Biso 1.000000     C
    C   1.0     0.333219     0.500008     0.644860  Biso 1.000000     C
    C   1.0     0.833216    -0.000001     0.644869  Biso 1.000000     C
    C   1.0     0.833227     0.500004     0.644854  Biso 1.000000     C
    C   1.0     0.401641    -0.000007     0.709608  Biso 1.000000     C
    C   1.0     0.401642     0.500007     0.709606  Biso 1.000000     C
    C   1.0     0.901640    -0.000003     0.709613  Biso 1.000000     C
    C   1.0     0.901650     0.500008     0.709601  Biso 1.000000     C
    C   1.0     0.459802    -0.000009     0.668901  Biso 1.000000     C
    C   1.0     0.459803     0.500008     0.668900  Biso 1.000000     C
    C   1.0     0.959800    -0.000009     0.668905  Biso 1.000000     C
    C   1.0     0.959812     0.500001     0.668897  Biso 1.000000     C
    C   1.0     0.023660    -0.000011     0.729530  Biso 1.000000     C
    C   1.0     0.023670     0.500005     0.729527  Biso 1.000000     C
    C   1.0     0.523668    -0.000012     0.729529  Biso 1.000000     C
    C   1.0     0.523669     0.500006     0.729528  Biso 1.000000     C
    C   1.0     0.086094    -0.000016     0.685986  Biso 1.000000     C
    C   1.0     0.086107     0.499996     0.685988  Biso 1.000000     C
    C   1.0     0.586104    -0.000011     0.685988  Biso 1.000000     C
    C   1.0     0.586104     0.500010     0.685986  Biso 1.000000     C
    C   1.0     0.029405    -0.000008     0.830524  Biso 1.000000     C
    C   1.0     0.029413     0.500012     0.830520  Biso 1.000000     C
    C   1.0     0.529412    -0.000012     0.830522  Biso 1.000000     C
    C   1.0     0.529412     0.500004     0.830522  Biso 1.000000     C
    C   1.0     0.471210    -0.000019     0.871709  Biso 1.000000     C
    C   1.0     0.471210     0.500007     0.871706  Biso 1.000000     C
    C   1.0     0.971210    -0.000010     0.871712  Biso 1.000000     C
    C   1.0     0.971216     0.500018     0.871703  Biso 1.000000     C
    C   1.0     0.407613    -0.000017     0.811012  Biso 1.000000     C
    C   1.0     0.407613     0.500007     0.811009  Biso 1.000000     C
    C   1.0     0.907612    -0.000007     0.811017  Biso 1.000000     C
    C   1.0     0.907619     0.500019     0.811004  Biso 1.000000     C
    C   1.0     0.166788    -0.000007     0.355123  Biso 1.000000     C
    C   1.0     0.166787     0.499995     0.355117  Biso 1.000000     C
    C   1.0     0.666796    -0.000005     0.355118  Biso 1.000000     C
    C   1.0     0.666785     0.499998     0.355122  Biso 1.000000     C
    C   1.0     0.098364    -0.000008     0.290380  Biso 1.000000     C
    C   1.0     0.098363     0.499996     0.290372  Biso 1.000000     C
    C   1.0     0.598372    -0.000004     0.290375  Biso 1.000000     C
    C   1.0     0.598361     0.499999     0.290377  Biso 1.000000     C
    C   1.0     0.040203    -0.000011     0.331087  Biso 1.000000     C
    C   1.0     0.040203     0.499993     0.331078  Biso 1.000000     C
    C   1.0     0.540212    -0.000005     0.331084  Biso 1.000000     C
    C   1.0     0.540200     0.500005     0.331081  Biso 1.000000     C
    C   1.0     0.476346    -0.000005     0.270458  Biso 1.000000     C
    C   1.0     0.476335     0.500007     0.270451  Biso 1.000000     C
    C   1.0     0.976344    -0.000011     0.270459  Biso 1.000000     C
    C   1.0     0.976344     0.499996     0.270450  Biso 1.000000     C
    C   1.0     0.413910    -0.000006     0.313999  Biso 1.000000     C
    C   1.0     0.413897     0.500013     0.313987  Biso 1.000000     C
    C   1.0     0.913906    -0.000014     0.313996  Biso 1.000000     C
    C   1.0     0.913908     0.499989     0.313991  Biso 1.000000     C
    C   1.0     0.470601    -0.000004     0.169464  Biso 1.000000     C
    C   1.0     0.470593     0.500002     0.169458  Biso 1.000000     C
    C   1.0     0.970600    -0.000008     0.169466  Biso 1.000000     C
    C   1.0     0.970600     0.500004     0.169456  Biso 1.000000     C
    C   1.0     0.028795    -0.000010     0.128279  Biso 1.000000     C
    C   1.0     0.028796     0.500010     0.128271  Biso 1.000000     C
    C   1.0     0.528802    -0.000008     0.128276  Biso 1.000000     C
    C   1.0     0.528796     0.500000     0.128275  Biso 1.000000     C
    C   1.0     0.092392    -0.000010     0.188977  Biso 1.000000     C
    C   1.0     0.092393     0.500003     0.188969  Biso 1.000000     C
    C   1.0     0.592400    -0.000007     0.188972  Biso 1.000000     C
    C   1.0     0.592392     0.500000     0.188974  Biso 1.000000     C
    N   1.0     0.189660     0.405755     0.595326  Biso 1.000000     N
    N   1.0     0.189659     0.905758     0.595333  Biso 1.000000     N
    N   1.0     0.689663     0.405756     0.595337  Biso 1.000000     N
    N   1.0     0.689669     0.905758     0.595324  Biso 1.000000     N
    N   1.0     0.310355     0.405755     0.404645  Biso 1.000000     N
    N   1.0     0.310365     0.905758     0.404645  Biso 1.000000     N
    N   1.0     0.810358     0.405757     0.404642  Biso 1.000000     N
    N   1.0     0.810368     0.905757     0.404659  Biso 1.000000     N
    N   1.0     0.310345     0.094244     0.404655  Biso 1.000000     N
    N   1.0     0.310340     0.594247     0.404655  Biso 1.000000     N
    N   1.0     0.810351     0.094246     0.404658  Biso 1.000000     N
    N   1.0     0.810343     0.594247     0.404640  Biso 1.000000     N
    N   1.0     0.189648     0.094245     0.595344  Biso 1.000000     N
    N   1.0     0.189656     0.594248     0.595336  Biso 1.000000     N
    N   1.0     0.689651     0.094246     0.595334  Biso 1.000000     N
    N   1.0     0.689653     0.594247     0.595343  Biso 1.000000     N
    N   1.0     0.470792    -0.000022     0.972968  Biso 1.000000     N
    N   1.0     0.470790     0.500011     0.972965  Biso 1.000000     N
    N   1.0     0.970793    -0.000014     0.972972  Biso 1.000000     N
    N   1.0     0.970796     0.500014     0.972962  Biso 1.000000     N
    N   1.0     0.029213    -0.000010     0.027020  Biso 1.000000     N
    N   1.0     0.029215     0.500011     0.027012  Biso 1.000000     N
    N   1.0     0.529219    -0.000005     0.027016  Biso 1.000000     N
    N   1.0     0.529216     0.499998     0.027016  Biso 1.000000     N
    O   1.0     0.282279    -0.000005     0.686772  Biso 1.000000     O
    O   1.0     0.282281     0.500002     0.686769  Biso 1.000000     O
    O   1.0     0.782278    -0.000001     0.686777  Biso 1.000000     O
    O   1.0     0.782289     0.500006     0.686765  Biso 1.000000     O
    O   1.0     0.330105     0.000002     0.553800  Biso 1.000000     O
    O   1.0     0.330108     0.500006     0.553797  Biso 1.000000     O
    O   1.0     0.830104     0.000006     0.553806  Biso 1.000000     O
    O   1.0     0.830115     0.500011     0.553792  Biso 1.000000     O
    O   1.0     0.079390     0.000005     0.592962  Biso 1.000000     O
    O   1.0     0.079406     0.500005     0.592964  Biso 1.000000     O
    O   1.0     0.579402     0.000000     0.592964  Biso 1.000000     O
    O   1.0     0.579401     0.500000     0.592962  Biso 1.000000     O
    O   1.0     0.143543     0.000002     0.741436  Biso 1.000000     O
    O   1.0     0.143554     0.500003     0.741441  Biso 1.000000     O
    O   1.0     0.643552     0.000001     0.741440  Biso 1.000000     O
    O   1.0     0.643552     0.500000     0.741437  Biso 1.000000     O
    O   1.0     0.217725    -0.000004     0.313210  Biso 1.000000     O
    O   1.0     0.217724     0.500003     0.313206  Biso 1.000000     O
    O   1.0     0.717734    -0.000007     0.313207  Biso 1.000000     O
    O   1.0     0.717721     0.499997     0.313210  Biso 1.000000     O
    O   1.0     0.169902    -0.000002     0.446186  Biso 1.000000     O
    O   1.0     0.169900     0.500002     0.446180  Biso 1.000000     O
    O   1.0     0.669910    -0.000005     0.446181  Biso 1.000000     O
    O   1.0     0.669899     0.499999     0.446185  Biso 1.000000     O
    O   1.0     0.420612     0.000001     0.407022  Biso 1.000000     O
    O   1.0     0.420597     0.499998     0.407012  Biso 1.000000     O
    O   1.0     0.920606     0.000005     0.407019  Biso 1.000000     O
    O   1.0     0.920610     0.500010     0.407015  Biso 1.000000     O
    O   1.0     0.356463    -0.000002     0.258546  Biso 1.000000     O
    O   1.0     0.356451     0.499993     0.258534  Biso 1.000000     O
    O   1.0     0.856459    -0.000002     0.258540  Biso 1.000000     O
    O   1.0     0.856460     0.500002     0.258539  Biso 1.000000     O
   Zn   1.0     0.186366    -0.000000     0.600588  Biso 1.000000    Zn
   Zn   1.0     0.186372     0.500002     0.600582  Biso 1.000000    Zn
   Zn   1.0     0.686370    -0.000000     0.600582  Biso 1.000000    Zn
   Zn   1.0     0.686374     0.500002     0.600588  Biso 1.000000    Zn
   Zn   1.0     0.313637    -0.000001     0.399394  Biso 1.000000    Zn
   Zn   1.0     0.313634     0.500001     0.399395  Biso 1.000000    Zn
   Zn   1.0     0.813640    -0.000001     0.399401  Biso 1.000000    Zn
   Zn   1.0     0.813638     0.500002     0.399388  Biso 1.000000    Zn
