#======================================================================

# CRYSTAL DATA

#----------------------------------------------------------------------

data_VESTA_phase_1


_pd_phase_name                         MOF
_cell_length_a                         12.81100
_cell_length_b                         14.28000
_cell_length_c                         14.19000
_cell_angle_alpha                      78.50700
_cell_angle_beta                       63.46700
_cell_angle_gamma                      63.52700
_symmetry_space_group_name_H-M         "P 1"
_symmetry_Int_Tables_number            1

loop_
_symmetry_equiv_pos_as_xyz
   "x, y, z"

loop_
   _atom_site_label
   _atom_site_occupancy
   _atom_site_fract_x
   _atom_site_fract_y
   _atom_site_fract_z
   _atom_site_adp_type
   _atom_site_B_iso_or_equiv
   _atom_site_type_symbol
    H   1.0     0.718662     0.410409     0.258977  Biso 1.000000     H
    H   1.0     0.783544     0.369354     0.127948  Biso 1.000000     H
    H   1.0     0.358305     0.241439     0.086870  Biso 1.000000     H
    H   1.0     0.292926     0.370572     0.131040  Biso 1.000000     H
    H   1.0     0.377631     0.594719     0.746397  Biso 1.000000     H
    H   1.0     0.275314     0.636605     0.877577  Biso 1.000000     H
    H   1.0     0.695769     0.753293     0.909100  Biso 1.000000     H
    H   1.0     0.798966     0.623495     0.865622  Biso 1.000000     H
    H   1.0     0.223840     0.244900     0.907922  Biso 1.000000     H
    H   1.0     0.163304     0.373839     0.862630  Biso 1.000000     H
    H   1.0     0.696507     0.412003     0.740418  Biso 1.000000     H
    H   1.0     0.670959     0.372199     0.871969  Biso 1.000000     H
    H   1.0     0.379370     0.752817     0.089825  Biso 1.000000     H
    H   1.0     0.404991     0.622866     0.132748  Biso 1.000000     H
    H   1.0     0.851843     0.591453     0.257024  Biso 1.000000     H
    H   1.0     0.912875     0.635690     0.126903  Biso 1.000000     H
    H   1.0     0.377041     0.748595     0.593537  Biso 1.000000     H
    H   1.0     0.274696     0.878332     0.637475  Biso 1.000000     H
    H   1.0     0.696214     0.906768     0.755423  Biso 1.000000     H
    H   1.0     0.799315     0.864157     0.624555  Biso 1.000000     H
    H   1.0     0.719113     0.255840     0.411246  Biso 1.000000     H
    H   1.0     0.785164     0.126711     0.366888  Biso 1.000000     H
    H   1.0     0.358650     0.087046     0.239430  Biso 1.000000     H
    H   1.0     0.294203     0.128316     0.370328  Biso 1.000000     H
    H   1.0     0.378996     0.089544     0.756656  Biso 1.000000     H
    H   1.0     0.405335     0.129803     0.625133  Biso 1.000000     H
    H   1.0     0.852261     0.255937     0.589517  Biso 1.000000     H
    H   1.0     0.912915     0.127311     0.635455  Biso 1.000000     H
    H   1.0     0.225018     0.905682     0.243692  Biso 1.000000     H
    H   1.0     0.163024     0.862943     0.374344  Biso 1.000000     H
    H   1.0     0.696271     0.743127     0.412419  Biso 1.000000     H
    H   1.0     0.671032     0.873391     0.370760  Biso 1.000000     H
    H   1.0     0.670461     0.260659     0.259916  Biso 1.000000     H
    H   1.0     0.831798     0.185071     0.182485  Biso 1.000000     H
    H   1.0     0.407730     0.236466     0.237816  Biso 1.000000     H
    H   1.0     0.246593     0.312403     0.315408  Biso 1.000000     H
    H   1.0     0.183202     0.747525     0.747091  Biso 1.000000     H
    H   1.0     0.198096     0.821246     0.822562  Biso 1.000000     H
    H   1.0     0.890117     0.754512     0.756283  Biso 1.000000     H
    H   1.0     0.876626     0.680025     0.680547  Biso 1.000000     H
    H   1.0     0.183420     0.239479     0.754851  Biso 1.000000     H
    H   1.0     0.270850     0.314447     0.678202  Biso 1.000000     H
    H   1.0     0.892751     0.262794     0.741999  Biso 1.000000     H
    H   1.0     0.805944     0.187589     0.819381  Biso 1.000000     H
    H   1.0     0.183122     0.753347     0.241419  Biso 1.000000     H
    H   1.0     0.269716     0.678731     0.317802  Biso 1.000000     H
    H   1.0     0.892774     0.743493     0.261544  Biso 1.000000     H
    H   1.0     0.806297     0.819091     0.185360  Biso 1.000000     H
    C   1.0     0.920785     0.330013     0.191770  Biso 1.000000     C
    C   1.0     0.156325     0.306838     0.168731  Biso 1.000000     C
    C   1.0     0.792047     0.344981     0.203707  Biso 1.000000     C
    C   1.0     0.285007     0.294946     0.153891  Biso 1.000000     C
    C   1.0     0.439814     0.671944     0.810587  Biso 1.000000     C
    C   1.0     0.634757     0.690205     0.829756  Biso 1.000000     C
    C   1.0     0.334509     0.659975     0.801085  Biso 1.000000     C
    C   1.0     0.739527     0.699646     0.842688  Biso 1.000000     C
    C   1.0     0.362554     0.308919     0.827932  Biso 1.000000     C
    C   1.0     0.574293     0.331728     0.807438  Biso 1.000000     C
    C   1.0     0.245921     0.297850     0.840801  Biso 1.000000     C
    C   1.0     0.687629     0.347019     0.796242  Biso 1.000000     C
    C   1.0     0.501710     0.689292     0.170488  Biso 1.000000     C
    C   1.0     0.713535     0.670323     0.192333  Biso 1.000000     C
    C   1.0     0.388291     0.698943     0.156236  Biso 1.000000     C
    C   1.0     0.830119     0.657790     0.203337  Biso 1.000000     C
    C   1.0     0.439630     0.810738     0.672336  Biso 1.000000     C
    C   1.0     0.634746     0.828873     0.691349  Biso 1.000000     C
    C   1.0     0.334128     0.801920     0.660024  Biso 1.000000     C
    C   1.0     0.739758     0.841130     0.701073  Biso 1.000000     C
    C   1.0     0.921188     0.190932     0.329692  Biso 1.000000     C
    C   1.0     0.156699     0.167761     0.306733  Biso 1.000000     C
    C   1.0     0.792760     0.202472     0.344204  Biso 1.000000     C
    C   1.0     0.285567     0.152617     0.294618  Biso 1.000000     C
    C   1.0     0.501841     0.169357     0.690533  Biso 1.000000     C
    C   1.0     0.713642     0.192031     0.670123  Biso 1.000000     C
    C   1.0     0.388404     0.154613     0.701130  Biso 1.000000     C
    C   1.0     0.830263     0.203299     0.656985  Biso 1.000000     C
    C   1.0     0.362584     0.827571     0.309189  Biso 1.000000     C
    C   1.0     0.574267     0.808139     0.331540  Biso 1.000000     C
    C   1.0     0.246063     0.839985     0.298165  Biso 1.000000     C
    C   1.0     0.687597     0.797739     0.346426  Biso 1.000000     C
    C   1.0     0.978891     0.254521     0.254823  Biso 1.000000     C
    C   1.0     0.098603     0.243277     0.243669  Biso 1.000000     C
    C   1.0     0.768620     0.245271     0.244467  Biso 1.000000     C
    C   1.0     0.309420     0.252107     0.253508  Biso 1.000000     C
    C   1.0     0.487145     0.746091     0.746440  Biso 1.000000     C
    C   1.0     0.587378     0.754767     0.755545  Biso 1.000000     C
    C   1.0     0.253227     0.760857     0.760933  Biso 1.000000     C
    C   1.0     0.820738     0.740679     0.741964  Biso 1.000000     C
    C   1.0     0.484002     0.244995     0.753953  Biso 1.000000     C
    C   1.0     0.592195     0.255988     0.744092  Biso 1.000000     C
    C   1.0     0.266063     0.254654     0.740554  Biso 1.000000     C
    C   1.0     0.810244     0.247179     0.756803  Biso 1.000000     C
    C   1.0     0.483943     0.753448     0.245555  Biso 1.000000     C
    C   1.0     0.592121     0.744171     0.256251  Biso 1.000000     C
    C   1.0     0.265677     0.739604     0.256547  Biso 1.000000     C
    C   1.0     0.810308     0.757657     0.246076  Biso 1.000000     C
    N   1.0     0.098042     0.376609     0.110354  Biso 1.000000     N
    N   1.0     0.978681     0.388872     0.122610  Biso 1.000000     N
    N   1.0     0.586604     0.621490     0.888930  Biso 1.000000     N
    N   1.0     0.488579     0.611898     0.878890  Biso 1.000000     N
    N   1.0     0.457600     0.390225     0.876442  Biso 1.000000     N
    N   1.0     0.350746     0.378261     0.887284  Biso 1.000000     N
    N   1.0     0.725367     0.610881     0.122952  Biso 1.000000     N
    N   1.0     0.618468     0.620885     0.111548  Biso 1.000000     N
    N   1.0     0.586491     0.888459     0.622580  Biso 1.000000     N
    N   1.0     0.488289     0.879012     0.612696  Biso 1.000000     N
    N   1.0     0.098523     0.109266     0.376278  Biso 1.000000     N
    N   1.0     0.979241     0.121481     0.388379  Biso 1.000000     N
    N   1.0     0.725518     0.122196     0.611285  Biso 1.000000     N
    N   1.0     0.618623     0.110373     0.622034  Biso 1.000000     N
    N   1.0     0.457600     0.876979     0.390050  Biso 1.000000     N
    N   1.0     0.350765     0.887251     0.378338  Biso 1.000000     N
   Cu   1.0     0.181814     0.462178     0.999056  Biso 1.000000    Cu
   Cu   1.0     0.645761     0.535581    -0.000274  Biso 1.000000    Cu
   Cu   1.0     0.430483     0.500455     0.963296  Biso 1.000000    Cu
   Cu   1.0     0.894331     0.500324     0.037926  Biso 1.000000    Cu
   Cu   1.0     0.645801    -0.001262     0.536871  Biso 1.000000    Cu
   Cu   1.0     0.181919     0.998536     0.462337  Biso 1.000000    Cu
   Cu   1.0     0.894632     0.037091     0.500308  Biso 1.000000    Cu
   Cu   1.0     0.430344     0.963684     0.500740  Biso 1.000000    Cu
   Br   1.0     0.037898     0.586791     0.913033  Biso 1.000000    Br
   Br   1.0     0.538987     0.411663     0.086311  Biso 1.000000    Br
   Br   1.0     0.201120     0.584419     0.089180  Biso 1.000000    Br
   Br   1.0     0.875464     0.412208     0.913276  Biso 1.000000    Br
   Br   1.0     0.539190     0.085793     0.412105  Biso 1.000000    Br
   Br   1.0     0.037116     0.913734     0.588206  Biso 1.000000    Br
   Br   1.0     0.875403     0.913235     0.412148  Biso 1.000000    Br
   Br   1.0     0.200945     0.088445     0.585402  Biso 1.000000    Br
