#======================================================================

# CRYSTAL DATA

#----------------------------------------------------------------------

data_VESTA_phase_1


_pd_phase_name                         MOF
_cell_length_a                         13.72800
_cell_length_b                         14.03000
_cell_length_c                         16.13400
_cell_angle_alpha                      89.99500
_cell_angle_beta                       89.98800
_cell_angle_gamma                      90.08300
_symmetry_space_group_name_H-M         "P 1"
_symmetry_Int_Tables_number            1

loop_
_symmetry_equiv_pos_as_xyz
   "x, y, z"

loop_
   _atom_site_label
   _atom_site_occupancy
   _atom_site_fract_x
   _atom_site_fract_y
   _atom_site_fract_z
   _atom_site_adp_type
   _atom_site_B_iso_or_equiv
   _atom_site_type_symbol
    H   1.0     0.285329     0.966557     0.815087  Biso 1.000000     H
    H   1.0     0.785326     0.966558     0.815080  Biso 1.000000     H
    H   1.0     0.274344     0.082295     0.696657  Biso 1.000000     H
    H   1.0     0.774333     0.082296     0.696652  Biso 1.000000     H
    H   1.0     0.475338     0.925120     0.805691  Biso 1.000000     H
    H   1.0     0.975339     0.924978     0.805578  Biso 1.000000     H
    H   1.0     0.464343     0.040860     0.687265  Biso 1.000000     H
    H   1.0     0.964353     0.040718     0.687151  Biso 1.000000     H
    H   1.0     0.464686     0.033362     0.315172  Biso 1.000000     H
    H   1.0     0.964689     0.033376     0.315175  Biso 1.000000     H
    H   1.0     0.475624     0.917638     0.196750  Biso 1.000000     H
    H   1.0     0.975614     0.917651     0.196753  Biso 1.000000     H
    H   1.0     0.274689     0.074878     0.305506  Biso 1.000000     H
    H   1.0     0.774674     0.074789     0.305581  Biso 1.000000     H
    H   1.0     0.285615     0.959152     0.187086  Biso 1.000000     H
    H   1.0     0.785611     0.959065     0.187159  Biso 1.000000     H
    H   1.0     0.214971     0.466062     0.681111  Biso 1.000000     H
    H   1.0     0.714970     0.466110     0.681067  Biso 1.000000     H
    H   1.0     0.225468     0.581856     0.799524  Biso 1.000000     H
    H   1.0     0.725467     0.581901     0.799482  Biso 1.000000     H
    H   1.0     0.024931     0.425485     0.691363  Biso 1.000000     H
    H   1.0     0.524918     0.425501     0.691361  Biso 1.000000     H
    H   1.0     0.035433     0.541288     0.809765  Biso 1.000000     H
    H   1.0     0.535419     0.541309     0.809760  Biso 1.000000     H
    H   1.0     0.035009     0.533961     0.181073  Biso 1.000000     H
    H   1.0     0.534975     0.533860     0.180989  Biso 1.000000     H
    H   1.0     0.024563     0.418125     0.299487  Biso 1.000000     H
    H   1.0     0.524530     0.418031     0.299409  Biso 1.000000     H
    H   1.0     0.225045     0.574496     0.191503  Biso 1.000000     H
    H   1.0     0.725017     0.574393     0.191435  Biso 1.000000     H
    H   1.0     0.214598     0.458652     0.309908  Biso 1.000000     H
    H   1.0     0.714570     0.458540     0.309834  Biso 1.000000     H
    C   1.0     0.137381     0.869144     0.886018  Biso 1.000000     C
    C   1.0     0.637373     0.869171     0.886037  Biso 1.000000     C
    C   1.0     0.130961     0.938933     0.816858  Biso 1.000000     C
    C   1.0     0.630947     0.938993     0.816903  Biso 1.000000     C
    C   1.0     0.215570     0.983233     0.786499  Biso 1.000000     C
    C   1.0     0.715559     0.983263     0.786518  Biso 1.000000     C
    C   1.0     0.209534     0.047345     0.721053  Biso 1.000000     C
    C   1.0     0.709519     0.047376     0.721073  Biso 1.000000     C
    C   1.0     0.040162     0.959986     0.781221  Biso 1.000000     C
    C   1.0     0.540138     0.960095     0.781306  Biso 1.000000     C
    C   1.0     0.034126     0.024095     0.715780  Biso 1.000000     C
    C   1.0     0.534098     0.024203     0.715866  Biso 1.000000     C
    C   1.0     0.118794     0.068022     0.685138  Biso 1.000000     C
    C   1.0     0.618772     0.068082     0.685183  Biso 1.000000     C
    C   1.0     0.112534     0.136083     0.614677  Biso 1.000000     C
    C   1.0     0.612514     0.136111     0.614699  Biso 1.000000     C
    C   1.0     0.112679     0.130784     0.386015  Biso 1.000000     C
    C   1.0     0.612654     0.130760     0.386030  Biso 1.000000     C
    C   1.0     0.119088     0.060977     0.316868  Biso 1.000000     C
    C   1.0     0.619066     0.060934     0.316898  Biso 1.000000     C
    C   1.0     0.034466     0.016690     0.286554  Biso 1.000000     C
    C   1.0     0.534443     0.016661     0.286568  Biso 1.000000     C
    C   1.0     0.040468     0.952582     0.221108  Biso 1.000000     C
    C   1.0     0.540452     0.952554     0.221121  Biso 1.000000     C
    C   1.0     0.209874     0.039894     0.281189  Biso 1.000000     C
    C   1.0     0.709859     0.039823     0.281245  Biso 1.000000     C
    C   1.0     0.215876     0.975791     0.215747  Biso 1.000000     C
    C   1.0     0.715867     0.975721     0.215803  Biso 1.000000     C
    C   1.0     0.131193     0.931888     0.185143  Biso 1.000000     C
    C   1.0     0.631182     0.931845     0.185172  Biso 1.000000     C
    C   1.0     0.137438     0.863842     0.114672  Biso 1.000000     C
    C   1.0     0.637428     0.863820     0.114686  Biso 1.000000     C
    C   1.0     0.362999     0.369119     0.610561  Biso 1.000000     C
    C   1.0     0.862988     0.369122     0.610550  Biso 1.000000     C
    C   1.0     0.369330     0.438944     0.679708  Biso 1.000000     C
    C   1.0     0.869322     0.438956     0.679690  Biso 1.000000     C
    C   1.0     0.284618     0.482995     0.709867  Biso 1.000000     C
    C   1.0     0.784614     0.483027     0.709834  Biso 1.000000     C
    C   1.0     0.290388     0.547125     0.775307  Biso 1.000000     C
    C   1.0     0.790385     0.547156     0.775275  Biso 1.000000     C
    C   1.0     0.460012     0.460294     0.715534  Biso 1.000000     C
    C   1.0     0.960001     0.460290     0.715527  Biso 1.000000     C
    C   1.0     0.465784     0.524426     0.780965  Biso 1.000000     C
    C   1.0     0.965774     0.524420     0.780960  Biso 1.000000     C
    C   1.0     0.381008     0.568094     0.811414  Biso 1.000000     C
    C   1.0     0.881000     0.568102     0.811399  Biso 1.000000     C
    C   1.0     0.387166     0.636160     0.881884  Biso 1.000000     C
    C   1.0     0.887155     0.636159     0.881878  Biso 1.000000     C
    C   1.0     0.386939     0.630834     0.110573  Biso 1.000000     C
    C   1.0     0.886927     0.630831     0.110578  Biso 1.000000     C
    C   1.0     0.380623     0.561008     0.179724  Biso 1.000000     C
    C   1.0     0.880612     0.561006     0.179730  Biso 1.000000     C
    C   1.0     0.465347     0.516935     0.209807  Biso 1.000000     C
    C   1.0     0.965346     0.516989     0.209856  Biso 1.000000     C
    C   1.0     0.459606     0.452789     0.275246  Biso 1.000000     C
    C   1.0     0.959605     0.452839     0.275292  Biso 1.000000     C
    C   1.0     0.289956     0.539679     0.215620  Biso 1.000000     C
    C   1.0     0.789936     0.539618     0.215583  Biso 1.000000     C
    C   1.0     0.284214     0.475531     0.281050  Biso 1.000000     C
    C   1.0     0.784193     0.475466     0.281010  Biso 1.000000     C
    C   1.0     0.369004     0.431842     0.311424  Biso 1.000000     C
    C   1.0     0.868993     0.431832     0.311425  Biso 1.000000     C
    C   1.0     0.362867     0.363770     0.381892  Biso 1.000000     C
    C   1.0     0.862855     0.363755     0.381889  Biso 1.000000     C
    O   1.0     0.107575     0.306852     0.497078  Biso 1.000000     O
    O   1.0     0.607562     0.306850     0.497071  Biso 1.000000     O
    O   1.0     0.192690     0.170818     0.587526  Biso 1.000000     O
    O   1.0     0.692673     0.170827     0.587536  Biso 1.000000     O
    O   1.0     0.222057     0.849226     0.913746  Biso 1.000000     O
    O   1.0     0.722051     0.849234     0.913753  Biso 1.000000     O
    O   1.0     0.027932     0.155041     0.586303  Biso 1.000000     O
    O   1.0     0.527914     0.155057     0.586314  Biso 1.000000     O
    O   1.0     0.057274     0.833598     0.912468  Biso 1.000000     O
    O   1.0     0.557268     0.833611     0.912477  Biso 1.000000     O
    O   1.0     0.142427     0.693057     0.997075  Biso 1.000000     O
    O   1.0     0.642415     0.693056     0.997079  Biso 1.000000     O
    O   1.0     0.057288     0.829125     0.087528  Biso 1.000000     O
    O   1.0     0.557276     0.829119     0.087531  Biso 1.000000     O
    O   1.0     0.027999     0.150714     0.413756  Biso 1.000000     O
    O   1.0     0.527972     0.150707     0.413760  Biso 1.000000     O
    O   1.0     0.222046     0.844884     0.086281  Biso 1.000000     O
    O   1.0     0.722036     0.844869     0.086289  Biso 1.000000     O
    O   1.0     0.192781     0.166334     0.412441  Biso 1.000000     O
    O   1.0     0.692755     0.166315     0.412454  Biso 1.000000     O
    O   1.0     0.392541     0.806829    -0.000505  Biso 1.000000     O
    O   1.0     0.892529     0.806817    -0.000499  Biso 1.000000     O
    O   1.0     0.307052     0.670788     0.908994  Biso 1.000000     O
    O   1.0     0.807040     0.670789     0.908985  Biso 1.000000     O
    O   1.0     0.278310     0.349159     0.582743  Biso 1.000000     O
    O   1.0     0.778300     0.349163     0.582732  Biso 1.000000     O
    O   1.0     0.471786     0.655198     0.910308  Biso 1.000000     O
    O   1.0     0.971773     0.655186     0.910312  Biso 1.000000     O
    O   1.0     0.443065     0.333615     0.584216  Biso 1.000000     O
    O   1.0     0.943054     0.333607     0.584215  Biso 1.000000     O
    O   1.0     0.357463     0.193073     0.499519  Biso 1.000000     O
    O   1.0     0.857453     0.193060     0.499518  Biso 1.000000     O
    O   1.0     0.442982     0.329156     0.408988  Biso 1.000000     O
    O   1.0     0.942970     0.329154     0.408993  Biso 1.000000     O
    O   1.0     0.471633     0.650791     0.082734  Biso 1.000000     O
    O   1.0     0.971622     0.650793     0.082743  Biso 1.000000     O
    O   1.0     0.278243     0.344712     0.410328  Biso 1.000000     O
    O   1.0     0.778230     0.344683     0.410316  Biso 1.000000     O
    O   1.0     0.306876     0.666340     0.084248  Biso 1.000000     O
    O   1.0     0.806864     0.666328     0.084244  Biso 1.000000     O
    V   1.0     0.218162     0.264528     0.498120  Biso 1.000000     V
    V   1.0     0.718147     0.264520     0.498118  Biso 1.000000     V
    V   1.0     0.031843     0.735393     0.998123  Biso 1.000000     V
    V   1.0     0.531832     0.735397     0.998118  Biso 1.000000     V
    V   1.0     0.281827     0.764540    -0.001540  Biso 1.000000     V
    V   1.0     0.781814     0.764532    -0.001542  Biso 1.000000     V
    V   1.0     0.468169     0.235389     0.498465  Biso 1.000000     V
    V   1.0     0.968157     0.235380     0.498465  Biso 1.000000     V
