#======================================================================

# CRYSTAL DATA

#----------------------------------------------------------------------

data_VESTA_phase_1


_pd_phase_name                         MOF
_cell_length_a                         13.72000
_cell_length_b                         14.23600
_cell_length_c                         15.97500
_cell_angle_alpha                      90.00400
_cell_angle_beta                       89.99600
_cell_angle_gamma                      89.99000
_symmetry_space_group_name_H-M         "P 1"
_symmetry_Int_Tables_number            1

loop_
_symmetry_equiv_pos_as_xyz
   "x, y, z"

loop_
   _atom_site_label
   _atom_site_occupancy
   _atom_site_fract_x
   _atom_site_fract_y
   _atom_site_fract_z
   _atom_site_adp_type
   _atom_site_B_iso_or_equiv
   _atom_site_type_symbol
    H   1.0     0.285950     0.038677     0.811187  Biso 1.000000     H
    H   1.0     0.786377     0.047350     0.805084  Biso 1.000000     H
    H   1.0     0.275747     0.921304     0.694066  Biso 1.000000     H
    H   1.0     0.776237     0.929820     0.688003  Biso 1.000000     H
    H   1.0     0.474290     0.072147     0.805375  Biso 1.000000     H
    H   1.0     0.975271     0.074867     0.802462  Biso 1.000000     H
    H   1.0     0.464233     0.954609     0.688320  Biso 1.000000     H
    H   1.0     0.965133     0.957498     0.685297  Biso 1.000000     H
    H   1.0     0.465518     0.959363     0.313118  Biso 1.000000     H
    H   1.0     0.965035     0.958003     0.311445  Biso 1.000000     H
    H   1.0     0.475632     0.075330     0.194910  Biso 1.000000     H
    H   1.0     0.975161     0.074181     0.193334  Biso 1.000000     H
    H   1.0     0.275712     0.921755     0.302944  Biso 1.000000     H
    H   1.0     0.774861     0.915442     0.298489  Biso 1.000000     H
    H   1.0     0.285896     0.037896     0.184790  Biso 1.000000     H
    H   1.0     0.785023     0.031409     0.180302  Biso 1.000000     H
    H   1.0     0.214606     0.536265     0.684455  Biso 1.000000     H
    H   1.0     0.714703     0.542818     0.689154  Biso 1.000000     H
    H   1.0     0.225035     0.420400     0.802695  Biso 1.000000     H
    H   1.0     0.724873     0.426851     0.807377  Biso 1.000000     H
    H   1.0     0.025961     0.575205     0.694573  Biso 1.000000     H
    H   1.0     0.524952     0.575049     0.694463  Biso 1.000000     H
    H   1.0     0.036117     0.459235     0.812774  Biso 1.000000     H
    H   1.0     0.535387     0.459159     0.812701  Biso 1.000000     H
    H   1.0     0.035301     0.456033     0.186431  Biso 1.000000     H
    H   1.0     0.535939     0.456419     0.186013  Biso 1.000000     H
    H   1.0     0.024933     0.573586     0.303420  Biso 1.000000     H
    H   1.0     0.525944     0.574027     0.302938  Biso 1.000000     H
    H   1.0     0.224821     0.422850     0.193101  Biso 1.000000     H
    H   1.0     0.725186     0.416308     0.197888  Biso 1.000000     H
    H   1.0     0.214810     0.540470     0.310043  Biso 1.000000     H
    H   1.0     0.714817     0.533816     0.314894  Biso 1.000000     H
    C   1.0     0.137039     0.133150     0.882793  Biso 1.000000     C
    C   1.0     0.636798     0.135302     0.881686  Biso 1.000000     C
    C   1.0     0.131152     0.063633     0.813373  Biso 1.000000     C
    C   1.0     0.630873     0.066403     0.811856  Biso 1.000000     C
    C   1.0     0.216193     0.020484     0.783048  Biso 1.000000     C
    C   1.0     0.716352     0.026593     0.778925  Biso 1.000000     C
    C   1.0     0.210604     0.955443     0.718359  Biso 1.000000     C
    C   1.0     0.710810     0.961511     0.714287  Biso 1.000000     C
    C   1.0     0.040403     0.040775     0.778157  Biso 1.000000     C
    C   1.0     0.539757     0.040495     0.779130  Biso 1.000000     C
    C   1.0     0.034832     0.975746     0.713455  Biso 1.000000     C
    C   1.0     0.534238     0.975401     0.714496  Biso 1.000000     C
    C   1.0     0.119862     0.932611     0.683138  Biso 1.000000     C
    C   1.0     0.619680     0.935320     0.681805  Biso 1.000000     C
    C   1.0     0.113945     0.862908     0.613752  Biso 1.000000     C
    C   1.0     0.613721     0.864950     0.613004  Biso 1.000000     C
    C   1.0     0.113812     0.864123     0.383410  Biso 1.000000     C
    C   1.0     0.613931     0.862252     0.382760  Biso 1.000000     C
    C   1.0     0.119820     0.933245     0.313690  Biso 1.000000     C
    C   1.0     0.619655     0.930774     0.312473  Biso 1.000000     C
    C   1.0     0.034714     0.975931     0.283074  Biso 1.000000     C
    C   1.0     0.534944     0.975526     0.283413  Biso 1.000000     C
    C   1.0     0.040263     0.040234     0.217848  Biso 1.000000     C
    C   1.0     0.540493     0.039757     0.218090  Biso 1.000000     C
    C   1.0     0.210599     0.955682     0.278369  Biso 1.000000     C
    C   1.0     0.709998     0.950963     0.275246  Biso 1.000000     C
    C   1.0     0.216164     0.019972     0.213124  Biso 1.000000     C
    C   1.0     0.715563     0.015203     0.209934  Biso 1.000000     C
    C   1.0     0.131047     0.062671     0.182508  Biso 1.000000     C
    C   1.0     0.630884     0.060173     0.181034  Biso 1.000000     C
    C   1.0     0.136898     0.131679     0.112824  Biso 1.000000     C
    C   1.0     0.636893     0.129719     0.111674  Biso 1.000000     C
    C   1.0     0.363286     0.631295     0.613108  Biso 1.000000     C
    C   1.0     0.863876     0.633795     0.614866  Biso 1.000000     C
    C   1.0     0.369219     0.562404     0.682868  Biso 1.000000     C
    C   1.0     0.869812     0.565576     0.685158  Biso 1.000000     C
    C   1.0     0.284323     0.518979     0.713134  Biso 1.000000     C
    C   1.0     0.784562     0.524105     0.716837  Biso 1.000000     C
    C   1.0     0.290045     0.454802     0.778467  Biso 1.000000     C
    C   1.0     0.790128     0.459895     0.782151  Biso 1.000000     C
    C   1.0     0.459948     0.540677     0.718737  Biso 1.000000     C
    C   1.0     0.960716     0.542209     0.719815  Biso 1.000000     C
    C   1.0     0.465663     0.476499     0.784064  Biso 1.000000     C
    C   1.0     0.966273     0.477981     0.785130  Biso 1.000000     C
    C   1.0     0.380766     0.433117     0.814371  Biso 1.000000     C
    C   1.0     0.881054     0.436246     0.816594  Biso 1.000000     C
    C   1.0     0.386731     0.364300     0.884220  Biso 1.000000     C
    C   1.0     0.887018     0.366682     0.885874  Biso 1.000000     C
    C   1.0     0.386764     0.363027     0.114046  Biso 1.000000     C
    C   1.0     0.886688     0.360598     0.115808  Biso 1.000000     C
    C   1.0     0.380910     0.432754     0.183134  Biso 1.000000     C
    C   1.0     0.880801     0.429476     0.185599  Biso 1.000000     C
    C   1.0     0.466149     0.475214     0.213802  Biso 1.000000     C
    C   1.0     0.965689     0.473481     0.215169  Biso 1.000000     C
    C   1.0     0.460679     0.540384     0.278365  Biso 1.000000     C
    C   1.0     0.960010     0.538597     0.279762  Biso 1.000000     C
    C   1.0     0.290069     0.456474     0.217723  Biso 1.000000     C
    C   1.0     0.790158     0.451251     0.221570  Biso 1.000000     C
    C   1.0     0.284596     0.521636     0.282280  Biso 1.000000     C
    C   1.0     0.784475     0.516360     0.286178  Biso 1.000000     C
    C   1.0     0.369845     0.563973     0.313063  Biso 1.000000     C
    C   1.0     0.869324     0.560603     0.315553  Biso 1.000000     C
    C   1.0     0.363926     0.633290     0.382466  Biso 1.000000     C
    C   1.0     0.863350     0.630704     0.384351  Biso 1.000000     C
    O   1.0     0.391895     0.192842     0.998563  Biso 1.000000     O
    O   1.0     0.892004     0.192933     0.996809  Biso 1.000000     O
    O   1.0     0.221602     0.152778     0.911296  Biso 1.000000     O
    O   1.0     0.721445     0.156352     0.909003  Biso 1.000000     O
    O   1.0     0.029461     0.843648     0.585089  Biso 1.000000     O
    O   1.0     0.528905     0.843364     0.586473  Biso 1.000000     O
    O   1.0     0.056827     0.168536     0.908820  Biso 1.000000     O
    O   1.0     0.556332     0.168681     0.909377  Biso 1.000000     O
    O   1.0     0.194297     0.827347     0.588301  Biso 1.000000     O
    O   1.0     0.694204     0.831138     0.586061  Biso 1.000000     O
    O   1.0     0.358391     0.802609     0.499132  Biso 1.000000     O
    O   1.0     0.858392     0.802683     0.497895  Biso 1.000000     O
    O   1.0     0.029021     0.843243     0.410432  Biso 1.000000     O
    O   1.0     0.529554     0.843638     0.412036  Biso 1.000000     O
    O   1.0     0.221605     0.152651     0.085450  Biso 1.000000     O
    O   1.0     0.721372     0.149289     0.083046  Biso 1.000000     O
    O   1.0     0.194324     0.830631     0.410604  Biso 1.000000     O
    O   1.0     0.694342     0.826979     0.408329  Biso 1.000000     O
    O   1.0     0.056453     0.165415     0.085612  Biso 1.000000     O
    O   1.0     0.556580     0.165366     0.086069  Biso 1.000000     O
    O   1.0     0.108489     0.691881     0.497177  Biso 1.000000     O
    O   1.0     0.608481     0.691862     0.499740  Biso 1.000000     O
    O   1.0     0.278853     0.650616     0.584126  Biso 1.000000     O
    O   1.0     0.779149     0.654423     0.587294  Biso 1.000000     O
    O   1.0     0.471200     0.345024     0.913114  Biso 1.000000     O
    O   1.0     0.971759     0.345261     0.912854  Biso 1.000000     O
    O   1.0     0.443650     0.666587     0.587205  Biso 1.000000     O
    O   1.0     0.944309     0.667049     0.587011  Biso 1.000000     O
    O   1.0     0.306365     0.329008     0.910106  Biso 1.000000     O
    O   1.0     0.806619     0.332803     0.913075  Biso 1.000000     O
    O   1.0     0.141958     0.303784    -0.000661  Biso 1.000000     O
    O   1.0     0.641839     0.303844    -0.000132  Biso 1.000000     O
    O   1.0     0.471483     0.341637     0.086975  Biso 1.000000     O
    O   1.0     0.971126     0.341465     0.086831  Biso 1.000000     O
    O   1.0     0.279161     0.654320     0.409747  Biso 1.000000     O
    O   1.0     0.778890     0.650449     0.413021  Biso 1.000000     O
    O   1.0     0.306350     0.329147     0.086873  Biso 1.000000     O
    O   1.0     0.806343     0.325353     0.089845  Biso 1.000000     O
    O   1.0     0.444347     0.666988     0.409926  Biso 1.000000     O
    O   1.0     0.943667     0.666489     0.409776  Biso 1.000000     O
    V   1.0     0.281004     0.234259     0.998498  Biso 1.000000     V
    V   1.0     0.781144     0.234392     0.998451  Biso 1.000000     V
    V   1.0     0.469261     0.760959     0.498954  Biso 1.000000     V
    V   1.0     0.969232     0.760948     0.497993  Biso 1.000000     V
    V   1.0     0.219450     0.733343     0.498090  Biso 1.000000     V
    V   1.0     0.719449     0.733344     0.498865  Biso 1.000000     V
    V   1.0     0.031190     0.261952    -0.001474  Biso 1.000000     V
    V   1.0     0.531175     0.261869    -0.000980  Biso 1.000000     V
