#======================================================================

# CRYSTAL DATA

#----------------------------------------------------------------------

data_VESTA_phase_1


_pd_phase_name                         MOF
_cell_length_a                         22.08700
_cell_length_b                         17.89200
_cell_length_c                         20.54100
_cell_angle_alpha                      110.25800
_cell_angle_beta                       93.39600
_cell_angle_gamma                      89.00700
_symmetry_space_group_name_H-M         "P 1"
_symmetry_Int_Tables_number            1

loop_
_symmetry_equiv_pos_as_xyz
   "x, y, z"

loop_
   _atom_site_label
   _atom_site_occupancy
   _atom_site_fract_x
   _atom_site_fract_y
   _atom_site_fract_z
   _atom_site_adp_type
   _atom_site_B_iso_or_equiv
   _atom_site_type_symbol
    H   1.0     0.106761     0.216412     0.046196  Biso 1.000000     H
    H   1.0     0.607978     0.216559     0.045897  Biso 1.000000     H
    H   1.0     0.100528     0.104815     0.930698  Biso 1.000000     H
    H   1.0     0.601796     0.104799     0.930488  Biso 1.000000     H
    H   1.0     0.067785     0.274055     0.827496  Biso 1.000000     H
    H   1.0     0.568247     0.273654     0.827034  Biso 1.000000     H
    H   1.0     0.075093     0.385564     0.942234  Biso 1.000000     H
    H   1.0     0.575538     0.385332     0.941700  Biso 1.000000     H
    H   1.0     0.289647     0.392626     0.231564  Biso 1.000000     H
    H   1.0     0.790118     0.393427     0.232794  Biso 1.000000     H
    H   1.0     0.403333     0.390794     0.232979  Biso 1.000000     H
    H   1.0     0.903814     0.392185     0.234212  Biso 1.000000     H
    H   1.0     0.399832     0.584057     0.154394  Biso 1.000000     H
    H   1.0     0.899420     0.584023     0.153839  Biso 1.000000     H
    H   1.0     0.286150     0.587459     0.154986  Biso 1.000000     H
    H   1.0     0.785743     0.586921     0.154518  Biso 1.000000     H
    H   1.0     0.087232     0.604232     0.435412  Biso 1.000000     H
    H   1.0     0.586627     0.604071     0.434209  Biso 1.000000     H
    H   1.0     0.072731     0.716432     0.548493  Biso 1.000000     H
    H   1.0     0.572320     0.715822     0.547588  Biso 1.000000     H
    H   1.0     0.064280     0.882645     0.439568  Biso 1.000000     H
    H   1.0     0.564537     0.883036     0.439680  Biso 1.000000     H
    H   1.0     0.076064     0.771405     0.327520  Biso 1.000000     H
    H   1.0     0.576447     0.772320     0.327383  Biso 1.000000     H
    H   1.0     0.093963     0.532965     0.004803  Biso 1.000000     H
    H   1.0     0.593964     0.533062     0.004202  Biso 1.000000     H
    H   1.0     0.075474     0.618387     0.932581  Biso 1.000000     H
    H   1.0     0.574964     0.618642     0.932188  Biso 1.000000     H
    H   1.0     0.060403     0.818867     0.123968  Biso 1.000000     H
    H   1.0     0.559721     0.818724     0.123789  Biso 1.000000     H
    H   1.0     0.079840     0.724781     0.187789  Biso 1.000000     H
    H   1.0     0.579717     0.724514     0.187399  Biso 1.000000     H
    H   1.0     0.111358     0.866375     0.941367  Biso 1.000000     H
    H   1.0     0.610684     0.866361     0.941559  Biso 1.000000     H
    H   1.0     0.125911     0.936963     0.857610  Biso 1.000000     H
    H   1.0     0.625912     0.936866     0.857909  Biso 1.000000     H
    H   1.0     0.003460     0.788761     0.711283  Biso 1.000000     H
    H   1.0     0.503601     0.789119     0.711050  Biso 1.000000     H
    H   1.0     0.482847     0.712203     0.788091  Biso 1.000000     H
    H   1.0     0.983370     0.711766     0.788454  Biso 1.000000     H
    H   1.0     0.266496     0.907111     0.740605  Biso 1.000000     H
    H   1.0     0.766468     0.907150     0.739755  Biso 1.000000     H
    H   1.0     0.380655     0.912790     0.741154  Biso 1.000000     H
    H   1.0     0.880612     0.912999     0.740698  Biso 1.000000     H
    H   1.0     0.365494     0.077572     0.631090  Biso 1.000000     H
    H   1.0     0.865729     0.077088     0.629926  Biso 1.000000     H
    H   1.0     0.252055     0.073359     0.632382  Biso 1.000000     H
    H   1.0     0.752270     0.072706     0.630829  Biso 1.000000     H
    H   1.0     0.066808     0.037660     0.499566  Biso 1.000000     H
    H   1.0     0.566364     0.037518     0.499206  Biso 1.000000     H
    H   1.0     0.094720     0.125586     0.435173  Biso 1.000000     H
    H   1.0     0.594941     0.125220     0.434888  Biso 1.000000     H
    H   1.0     0.108098     0.320239     0.632828  Biso 1.000000     H
    H   1.0     0.608896     0.319729     0.632601  Biso 1.000000     H
    H   1.0     0.079238     0.223728     0.688585  Biso 1.000000     H
    H   1.0     0.579381     0.223447     0.688283  Biso 1.000000     H
    H   1.0     0.205560     0.234397     0.318549  Biso 1.000000     H
    H   1.0     0.705733     0.234059     0.318023  Biso 1.000000     H
    H   1.0     0.181253     0.306539     0.235984  Biso 1.000000     H
    H   1.0     0.681247     0.306434     0.235681  Biso 1.000000     H
    H   1.0     0.034941     0.420699     0.345501  Biso 1.000000     H
    H   1.0     0.535345     0.420815     0.345895  Biso 1.000000     H
    H   1.0     0.052894     0.354023     0.433960  Biso 1.000000     H
    H   1.0     0.553564     0.354030     0.434226  Biso 1.000000     H
    H   1.0     0.023699     0.824001     0.012973  Biso 1.000000     H
    H   1.0     0.522650     0.823958     0.012920  Biso 1.000000     H
    H   1.0    -0.007718     0.709556     0.903485  Biso 1.000000     H
    H   1.0     0.491397     0.709730     0.903221  Biso 1.000000     H
    H   1.0     0.145263     0.332444     0.529841  Biso 1.000000     H
    H   1.0     0.646216     0.331770     0.529634  Biso 1.000000     H
    H   1.0     0.185198     0.221442     0.427253  Biso 1.000000     H
    H   1.0     0.685631     0.220829     0.426677  Biso 1.000000     H
    H   1.0     0.392035     0.783480     0.954105  Biso 1.000000     H
    H   1.0     0.893281     0.783616     0.953806  Biso 1.000000     H
    H   1.0     0.398210     0.895237     0.069517  Biso 1.000000     H
    H   1.0     0.899501     0.895212     0.069302  Biso 1.000000     H
    H   1.0     0.431778     0.726377     0.172964  Biso 1.000000     H
    H   1.0     0.932243     0.725980     0.172510  Biso 1.000000     H
    H   1.0     0.424502     0.614706     0.058293  Biso 1.000000     H
    H   1.0     0.924945     0.614467     0.057775  Biso 1.000000     H
    H   1.0     0.210062     0.606512     0.767261  Biso 1.000000     H
    H   1.0     0.710506     0.607463     0.768377  Biso 1.000000     H
    H   1.0     0.096372     0.607752     0.765840  Biso 1.000000     H
    H   1.0     0.596813     0.609304     0.766970  Biso 1.000000     H
    H   1.0     0.100760     0.415909     0.846204  Biso 1.000000     H
    H   1.0     0.600316     0.416059     0.845577  Biso 1.000000     H
    H   1.0     0.214445     0.413018     0.845538  Biso 1.000000     H
    H   1.0     0.713989     0.412653     0.844989  Biso 1.000000     H
    H   1.0     0.413392     0.395946     0.565778  Biso 1.000000     H
    H   1.0     0.912797     0.395799     0.564617  Biso 1.000000     H
    H   1.0     0.427700     0.284191     0.452399  Biso 1.000000     H
    H   1.0     0.927281     0.283606     0.451526  Biso 1.000000     H
    H   1.0     0.435476     0.116980     0.560310  Biso 1.000000     H
    H   1.0     0.935731     0.117373     0.560432  Biso 1.000000     H
    H   1.0     0.423572     0.227701     0.672607  Biso 1.000000     H
    H   1.0     0.923956     0.228605     0.672487  Biso 1.000000     H
    H   1.0     0.406185     0.466973     0.995797  Biso 1.000000     H
    H   1.0     0.906093     0.467066     0.995208  Biso 1.000000     H
    H   1.0     0.425039     0.381368     0.067816  Biso 1.000000     H
    H   1.0     0.924583     0.381650     0.067433  Biso 1.000000     H
    H   1.0     0.440262     0.181268     0.876221  Biso 1.000000     H
    H   1.0     0.939640     0.181159     0.876051  Biso 1.000000     H
    H   1.0     0.420411     0.275506     0.812607  Biso 1.000000     H
    H   1.0     0.920207     0.275242     0.812226  Biso 1.000000     H
    H   1.0     0.389343     0.133662     0.058447  Biso 1.000000     H
    H   1.0     0.888697     0.133672     0.058643  Biso 1.000000     H
    H   1.0     0.374113     0.063154     0.142096  Biso 1.000000     H
    H   1.0     0.874126     0.063085     0.142395  Biso 1.000000     H
    H   1.0     0.496420     0.210905     0.288960  Biso 1.000000     H
    H   1.0     0.996566     0.211281     0.288741  Biso 1.000000     H
    H   1.0     0.016670     0.288285     0.211574  Biso 1.000000     H
    H   1.0     0.517171     0.287827     0.211920  Biso 1.000000     H
    H   1.0     0.233548     0.092869     0.260243  Biso 1.000000     H
    H   1.0     0.733519     0.092909     0.259395  Biso 1.000000     H
    H   1.0     0.119404     0.087025     0.259305  Biso 1.000000     H
    H   1.0     0.619361     0.087221     0.258844  Biso 1.000000     H
    H   1.0     0.134286     0.922941     0.370081  Biso 1.000000     H
    H   1.0     0.634529     0.922449     0.368917  Biso 1.000000     H
    H   1.0     0.247746     0.927322     0.369177  Biso 1.000000     H
    H   1.0     0.747967     0.926671     0.367627  Biso 1.000000     H
    H   1.0     0.433656     0.962501     0.500792  Biso 1.000000     H
    H   1.0     0.933207     0.962368     0.500448  Biso 1.000000     H
    H   1.0     0.405082     0.874795     0.565108  Biso 1.000000     H
    H   1.0     0.905294     0.874444     0.564842  Biso 1.000000     H
    H   1.0     0.391134     0.680288     0.367392  Biso 1.000000     H
    H   1.0     0.891923     0.679789     0.367189  Biso 1.000000     H
    H   1.0     0.420643     0.776575     0.311712  Biso 1.000000     H
    H   1.0     0.920782     0.776297     0.311431  Biso 1.000000     H
    H   1.0     0.294299     0.765948     0.681973  Biso 1.000000     H
    H   1.0     0.794524     0.765535     0.681508  Biso 1.000000     H
    H   1.0     0.318804     0.693580     0.764317  Biso 1.000000     H
    H   1.0     0.818937     0.693404     0.764064  Biso 1.000000     H
    H   1.0     0.464706     0.579219     0.654091  Biso 1.000000     H
    H   1.0     0.965228     0.579352     0.654440  Biso 1.000000     H
    H   1.0     0.446467     0.645996     0.565757  Biso 1.000000     H
    H   1.0     0.947162     0.646002     0.565988  Biso 1.000000     H
    H   1.0     0.477363     0.176051     0.987091  Biso 1.000000     H
    H   1.0     0.976360     0.176038     0.987047  Biso 1.000000     H
    H   1.0     0.508616     0.290300     0.096779  Biso 1.000000     H
    H   1.0     0.000000     0.290483     0.096538  Biso 1.000000     H
    H   1.0     0.353812     0.668243     0.470356  Biso 1.000000     H
    H   1.0     0.854756     0.667579     0.470172  Biso 1.000000     H
    H   1.0     0.314392     0.779181     0.573314  Biso 1.000000     H
    H   1.0     0.814827     0.778551     0.572792  Biso 1.000000     H
    C   1.0     0.091338     0.374165     0.070162  Biso 1.000000     C
    C   1.0     0.592209     0.374235     0.069617  Biso 1.000000     C
    C   1.0     0.090845     0.307759     0.001184  Biso 1.000000     C
    C   1.0     0.591706     0.307706     0.000729  Biso 1.000000     C
    C   1.0     0.098301     0.228503     0.997964  Biso 1.000000     C
    C   1.0     0.599377     0.228523     0.997625  Biso 1.000000     C
    C   1.0     0.094785     0.166633     0.934103  Biso 1.000000     C
    C   1.0     0.595879     0.166569     0.933819  Biso 1.000000     C
    C   1.0     0.083362     0.182739     0.872307  Biso 1.000000     C
    C   1.0     0.584278     0.182530     0.871982  Biso 1.000000     C
    C   1.0     0.077202     0.262052     0.875576  Biso 1.000000     C
    C   1.0     0.577843     0.261777     0.875144  Biso 1.000000     C
    C   1.0     0.081188     0.324005     0.939339  Biso 1.000000     C
    C   1.0     0.581818     0.323813     0.938850  Biso 1.000000     C
    C   1.0     0.076442     0.115165     0.803773  Biso 1.000000     C
    C   1.0     0.577374     0.114860     0.803522  Biso 1.000000     C
    C   1.0     0.212952     0.491342     0.192241  Biso 1.000000     C
    C   1.0     0.712991     0.491057     0.192608  Biso 1.000000     C
    C   1.0     0.281108     0.490135     0.193243  Biso 1.000000     C
    C   1.0     0.781149     0.490263     0.193658  Biso 1.000000     C
    C   1.0     0.314259     0.434701     0.215209  Biso 1.000000     C
    C   1.0     0.814549     0.435365     0.216094  Biso 1.000000     C
    C   1.0     0.377344     0.433671     0.215967  Biso 1.000000     C
    C   1.0     0.877643     0.434667     0.216856  Biso 1.000000     C
    C   1.0     0.408462     0.487442     0.193738  Biso 1.000000     C
    C   1.0     0.908496     0.488215     0.194128  Biso 1.000000     C
    C   1.0     0.375272     0.542715     0.171604  Biso 1.000000     C
    C   1.0     0.875043     0.542912     0.171492  Biso 1.000000     C
    C   1.0     0.312245     0.544507     0.171777  Biso 1.000000     C
    C   1.0     0.812030     0.544407     0.171690  Biso 1.000000     C
    C   1.0     0.476488     0.485215     0.192739  Biso 1.000000     C
    C   1.0     0.976502     0.486503     0.192922  Biso 1.000000     C
    C   1.0     0.090666     0.614428     0.307337  Biso 1.000000     C
    C   1.0     0.590470     0.615079     0.306364  Biso 1.000000     C
    C   1.0     0.082859     0.681104     0.374849  Biso 1.000000     C
    C   1.0     0.582742     0.681465     0.374117  Biso 1.000000     C
    C   1.0     0.081703     0.665537     0.437198  Biso 1.000000     C
    C   1.0     0.581340     0.665503     0.436272  Biso 1.000000     C
    C   1.0     0.073814     0.727468     0.499620  Biso 1.000000     C
    C   1.0     0.573517     0.727198     0.498875  Biso 1.000000     C
    C   1.0     0.068072     0.806198     0.500930  Biso 1.000000     C
    C   1.0     0.567964     0.806098     0.500582  Biso 1.000000     C
    C   1.0     0.069310     0.821684     0.438616  Biso 1.000000     C
    C   1.0     0.569414     0.821962     0.438456  Biso 1.000000     C
    C   1.0     0.076031     0.759654     0.376099  Biso 1.000000     C
    C   1.0     0.576197     0.760199     0.375780  Biso 1.000000     C
    C   1.0     0.062242     0.873634     0.568497  Biso 1.000000     C
    C   1.0     0.562037     0.873320     0.568308  Biso 1.000000     C
    C   1.0     0.086461     0.596706     0.028891  Biso 1.000000     C
    C   1.0     0.586271     0.596748     0.028383  Biso 1.000000     C
    C   1.0     0.076098     0.644460     0.988866  Biso 1.000000     C
    C   1.0     0.575622     0.644582     0.988476  Biso 1.000000     C
    C   1.0     0.064735     0.725839     0.022191  Biso 1.000000     C
    C   1.0     0.564041     0.725878     0.021918  Biso 1.000000     C
    C   1.0     0.068099     0.755975     0.095362  Biso 1.000000     C
    C   1.0     0.567528     0.755884     0.095088  Biso 1.000000     C
    C   1.0     0.078769     0.704085     0.131235  Biso 1.000000     C
    C   1.0     0.578497     0.703937     0.130847  Biso 1.000000     C
    C   1.0     0.044831     0.783817     0.872328  Biso 1.000000     C
    C   1.0     0.544178     0.784032     0.872236  Biso 1.000000     C
    C   1.0     0.086572     0.847520     0.890950  Biso 1.000000     C
    C   1.0     0.586065     0.847589     0.891045  Biso 1.000000     C
    C   1.0     0.094971     0.886410     0.844441  Biso 1.000000     C
    C   1.0     0.594845     0.886427     0.844585  Biso 1.000000     C
    C   1.0     0.026399     0.803778     0.762681  Biso 1.000000     C
    C   1.0     0.526347     0.804056     0.762539  Biso 1.000000     C
    C   1.0     0.015182     0.761383     0.805498  Biso 1.000000     C
    C   1.0     0.514741     0.761737     0.805307  Biso 1.000000     C
    C   1.0     0.184793     0.987920     0.686999  Biso 1.000000     C
    C   1.0     0.684840     0.987454     0.685764  Biso 1.000000     C
    C   1.0     0.252787     0.989493     0.686085  Biso 1.000000     C
    C   1.0     0.752853     0.989175     0.684871  Biso 1.000000     C
    C   1.0     0.288959     0.943832     0.716515  Biso 1.000000     C
    C   1.0     0.788984     0.943751     0.715593  Biso 1.000000     C
    C   1.0     0.351933     0.947133     0.716965  Biso 1.000000     C
    C   1.0     0.851953     0.947149     0.716260  Biso 1.000000     C
    C   1.0     0.379796     0.995499     0.686165  Biso 1.000000     C
    C   1.0     0.879927     0.995372     0.685392  Biso 1.000000     C
    C   1.0     0.343564     0.040437     0.655077  Biso 1.000000     C
    C   1.0     0.843757     0.040047     0.653978  Biso 1.000000     C
    C   1.0     0.280664     0.037882     0.655459  Biso 1.000000     C
    C   1.0     0.780821     0.037398     0.654143  Biso 1.000000     C
    C   1.0     0.447779     0.998802     0.686351  Biso 1.000000     C
    C   1.0     0.947953     0.998628     0.686008  Biso 1.000000     C
    C   1.0     0.076324     0.100609     0.527072  Biso 1.000000     C
    C   1.0     0.576148     0.100385     0.526750  Biso 1.000000     C
    C   1.0     0.091994     0.149707     0.491272  Biso 1.000000     C
    C   1.0     0.592187     0.149366     0.490984  Biso 1.000000     C
    C   1.0     0.104898     0.230084     0.528900  Biso 1.000000     C
    C   1.0     0.605400     0.229648     0.528635  Biso 1.000000     C
    C   1.0     0.099299     0.258058     0.601220  Biso 1.000000     C
    C   1.0     0.599819     0.257627     0.600962  Biso 1.000000     C
    C   1.0     0.083204     0.204925     0.632598  Biso 1.000000     C
    C   1.0     0.583345     0.204619     0.632296  Biso 1.000000     C
    C   1.0     0.131329     0.289163     0.383967  Biso 1.000000     C
    C   1.0     0.631746     0.288921     0.383799  Biso 1.000000     C
    C   1.0     0.167052     0.274837     0.326212  Biso 1.000000     C
    C   1.0     0.667283     0.274606     0.325899  Biso 1.000000     C
    C   1.0     0.153628     0.314369     0.280093  Biso 1.000000     C
    C   1.0     0.653753     0.314256     0.279890  Biso 1.000000     C
    C   1.0     0.072181     0.378901     0.341913  Biso 1.000000     C
    C   1.0     0.572556     0.378934     0.342110  Biso 1.000000     C
    C   1.0     0.082201     0.342118     0.390776  Biso 1.000000     C
    C   1.0     0.582715     0.342066     0.390899  Biso 1.000000     C
    C   1.0     0.407875     0.625809     0.930385  Biso 1.000000     C
    C   1.0     0.908733     0.625861     0.929846  Biso 1.000000     C
    C   1.0     0.408320     0.692335     0.999270  Biso 1.000000     C
    C   1.0     0.909194     0.692269     0.998820  Biso 1.000000     C
    C   1.0     0.400634     0.771516     0.002376  Biso 1.000000     C
    C   1.0     0.901739     0.771525     0.002038  Biso 1.000000     C
    C   1.0     0.404129     0.833467     0.066183  Biso 1.000000     C
    C   1.0     0.905243     0.833395     0.065900  Biso 1.000000     C
    C   1.0     0.415736     0.817504     0.128019  Biso 1.000000     C
    C   1.0     0.916666     0.817292     0.127697  Biso 1.000000     C
    C   1.0     0.422177     0.738258     0.124856  Biso 1.000000     C
    C   1.0     0.922825     0.737979     0.124429  Biso 1.000000     C
    C   1.0     0.418209     0.676225     0.061148  Biso 1.000000     C
    C   1.0     0.918848     0.676025     0.060666  Biso 1.000000     C
    C   1.0     0.422643     0.885172     0.196479  Biso 1.000000     C
    C   1.0     0.923576     0.884868     0.196232  Biso 1.000000     C
    C   1.0     0.287211     0.508945     0.807454  Biso 1.000000     C
    C   1.0     0.787215     0.508707     0.807714  Biso 1.000000     C
    C   1.0     0.219041     0.509684     0.806408  Biso 1.000000     C
    C   1.0     0.719046     0.509958     0.806704  Biso 1.000000     C
    C   1.0     0.185634     0.564575     0.783964  Biso 1.000000     C
    C   1.0     0.685894     0.565388     0.784734  Biso 1.000000     C
    C   1.0     0.122545     0.565275     0.783201  Biso 1.000000     C
    C   1.0     0.622806     0.566424     0.783977  Biso 1.000000     C
    C   1.0     0.091694     0.511723     0.805928  Biso 1.000000     C
    C   1.0     0.591690     0.512659     0.806211  Biso 1.000000     C
    C   1.0     0.125142     0.457027     0.828565  Biso 1.000000     C
    C   1.0     0.624877     0.457392     0.828357  Biso 1.000000     C
    C   1.0     0.188160     0.455535     0.828369  Biso 1.000000     C
    C   1.0     0.687901     0.455599     0.828184  Biso 1.000000     C
    C   1.0     0.023697     0.513467     0.807100  Biso 1.000000     C
    C   1.0     0.523677     0.514860     0.807235  Biso 1.000000     C
    C   1.0     0.409600     0.384948     0.693627  Biso 1.000000     C
    C   1.0     0.909393     0.385589     0.692691  Biso 1.000000     C
    C   1.0     0.417274     0.318552     0.625869  Biso 1.000000     C
    C   1.0     0.917165     0.318915     0.625169  Biso 1.000000     C
    C   1.0     0.418675     0.334513     0.563713  Biso 1.000000     C
    C   1.0     0.918316     0.334490     0.562823  Biso 1.000000     C
    C   1.0     0.426497     0.272817     0.501112  Biso 1.000000     C
    C   1.0     0.926200     0.272564     0.500397  Biso 1.000000     C
    C   1.0     0.432050     0.193919     0.499409  Biso 1.000000     C
    C   1.0     0.931937     0.193830     0.499078  Biso 1.000000     C
    C   1.0     0.430596     0.178055     0.561533  Biso 1.000000     C
    C   1.0     0.930703     0.178337     0.561389  Biso 1.000000     C
    C   1.0     0.423818     0.239818     0.624209  Biso 1.000000     C
    C   1.0     0.923983     0.240361     0.623910  Biso 1.000000     C
    C   1.0     0.437979     0.126696     0.431686  Biso 1.000000     C
    C   1.0     0.937771     0.126397     0.431511  Biso 1.000000     C
    C   1.0     0.413860     0.403282     0.971621  Biso 1.000000     C
    C   1.0     0.913595     0.403324     0.971121  Biso 1.000000     C
    C   1.0     0.424418     0.355433     0.011529  Biso 1.000000     C
    C   1.0     0.923956     0.355573     0.011149  Biso 1.000000     C
    C   1.0     0.435985     0.274132     0.978088  Biso 1.000000     C
    C   1.0     0.935318     0.274194     0.977826  Biso 1.000000     C
    C   1.0     0.432502     0.244120     0.904919  Biso 1.000000     C
    C   1.0     0.931948     0.244052     0.904655  Biso 1.000000     C
    C   1.0     0.421623     0.296082     0.869159  Biso 1.000000     C
    C   1.0     0.921281     0.295940     0.868780  Biso 1.000000     C
    C   1.0     0.455846     0.215992     0.127774  Biso 1.000000     C
    C   1.0     0.955220     0.216228     0.127692  Biso 1.000000     C
    C   1.0     0.413960     0.152433     0.108963  Biso 1.000000     C
    C   1.0     0.913476     0.152527     0.109063  Biso 1.000000     C
    C   1.0     0.405180     0.113594     0.155421  Biso 1.000000     C
    C   1.0     0.905068     0.113637     0.155569  Biso 1.000000     C
    C   1.0     0.473676     0.195968     0.237470  Biso 1.000000     C
    C   1.0     0.973634     0.196266     0.237340  Biso 1.000000     C
    C   1.0     0.485281     0.238288     0.194703  Biso 1.000000     C
    C   1.0     0.984861     0.238664     0.194526  Biso 1.000000     C
    C   1.0     0.315175     0.012568     0.314235  Biso 1.000000     C
    C   1.0     0.815226     0.012106     0.313002  Biso 1.000000     C
    C   1.0     0.247163     0.010849     0.315132  Biso 1.000000     C
    C   1.0     0.747232     0.010532     0.313920  Biso 1.000000     C
    C   1.0     0.211032     0.056268     0.284407  Biso 1.000000     C
    C   1.0     0.711058     0.056187     0.283484  Biso 1.000000     C
    C   1.0     0.148062     0.052877     0.283745  Biso 1.000000     C
    C   1.0     0.648084     0.052884     0.283036  Biso 1.000000     C
    C   1.0     0.120089     0.004654     0.314614  Biso 1.000000     C
    C   1.0     0.620223     0.004517     0.313837  Biso 1.000000     C
    C   1.0     0.156259     0.959982     0.346031  Biso 1.000000     C
    C   1.0     0.656457     0.959585     0.344930  Biso 1.000000     C
    C   1.0     0.219194     0.962627     0.345860  Biso 1.000000     C
    C   1.0     0.719357     0.962141     0.344546  Biso 1.000000     C
    C   1.0     0.052063     0.001404     0.314003  Biso 1.000000     C
    C   1.0     0.552240     0.001213     0.313652  Biso 1.000000     C
    C   1.0     0.423872     0.899634     0.473247  Biso 1.000000     C
    C   1.0     0.923691     0.899419     0.472942  Biso 1.000000     C
    C   1.0     0.407836     0.850651     0.509011  Biso 1.000000     C
    C   1.0     0.908020     0.850322     0.508743  Biso 1.000000     C
    C   1.0     0.394624     0.770369     0.471358  Biso 1.000000     C
    C   1.0     0.895115     0.769944     0.471116  Biso 1.000000     C
    C   1.0     0.400207     0.742391     0.399032  Biso 1.000000     C
    C   1.0     0.900717     0.741970     0.398796  Biso 1.000000     C
    C   1.0     0.416679     0.795402     0.367699  Biso 1.000000     C
    C   1.0     0.916813     0.795102     0.367418  Biso 1.000000     C
    C   1.0     0.368286     0.711098     0.616193  Biso 1.000000     C
    C   1.0     0.868741     0.710831     0.616043  Biso 1.000000     C
    C   1.0     0.332754     0.725409     0.674096  Biso 1.000000     C
    C   1.0     0.833051     0.725122     0.673821  Biso 1.000000     C
    C   1.0     0.346296     0.685764     0.720107  Biso 1.000000     C
    C   1.0     0.846537     0.685602     0.719940  Biso 1.000000     C
    C   1.0     0.427492     0.621097     0.657881  Biso 1.000000     C
    C   1.0     0.927968     0.621129     0.658060  Biso 1.000000     C
    C   1.0     0.417322     0.657959     0.609090  Biso 1.000000     C
    C   1.0     0.917885     0.657896     0.609196  Biso 1.000000     C
    N   1.0     0.086862     0.624795     0.099098  Biso 1.000000     N
    N   1.0     0.586754     0.624691     0.098594  Biso 1.000000     N
    N   1.0     0.050184     0.777024     0.986054  Biso 1.000000     N
    N   1.0     0.549197     0.777108     0.985912  Biso 1.000000     N
    N   1.0     0.031866     0.743394     0.915698  Biso 1.000000     N
    N   1.0     0.530944     0.743623     0.915537  Biso 1.000000     N
    N   1.0     0.065318     0.866363     0.781246  Biso 1.000000     N
    N   1.0     0.565447     0.866459     0.781254  Biso 1.000000     N
    N   1.0     0.072423     0.126810     0.596746  Biso 1.000000     N
    N   1.0     0.572176     0.126603     0.596411  Biso 1.000000     N
    N   1.0     0.122635     0.282823     0.497223  Biso 1.000000     N
    N   1.0     0.623387     0.282328     0.497020  Biso 1.000000     N
    N   1.0     0.145033     0.251845     0.431343  Biso 1.000000     N
    N   1.0     0.645517     0.251373     0.431007  Biso 1.000000     N
    N   1.0     0.107095     0.366315     0.287190  Biso 1.000000     N
    N   1.0     0.607267     0.366310     0.287217  Biso 1.000000     N
    N   1.0     0.413453     0.375345     0.901414  Biso 1.000000     N
    N   1.0     0.913195     0.375232     0.900915  Biso 1.000000     N
    N   1.0     0.450816     0.222902     0.014098  Biso 1.000000     N
    N   1.0     0.949875     0.223015     0.013966  Biso 1.000000     N
    N   1.0     0.469077     0.256395     0.084469  Biso 1.000000     N
    N   1.0     0.968193     0.256648     0.084322  Biso 1.000000     N
    N   1.0     0.434576     0.133564     0.218753  Biso 1.000000     N
    N   1.0     0.934714     0.133682     0.218769  Biso 1.000000     N
    N   1.0     0.427844     0.873418     0.403586  Biso 1.000000     N
    N   1.0     0.927592     0.873218     0.403267  Biso 1.000000     N
    N   1.0     0.376637     0.717688     0.502971  Biso 1.000000     N
    N   1.0     0.877378     0.717203     0.502790  Biso 1.000000     N
    N   1.0     0.354507     0.748641     0.568984  Biso 1.000000     N
    N   1.0     0.854999     0.748160     0.568681  Biso 1.000000     N
    N   1.0     0.392789     0.633722     0.712780  Biso 1.000000     N
    N   1.0     0.893104     0.633701     0.712822  Biso 1.000000     N
    O   1.0     0.080284     0.355174     0.123128  Biso 1.000000     O
    O   1.0     0.581302     0.355320     0.122667  Biso 1.000000     O
    O   1.0     0.101573     0.443924     0.070995  Biso 1.000000     O
    O   1.0     0.602270     0.443957     0.070261  Biso 1.000000     O
    O   1.0     0.085440     0.045286     0.805109  Biso 1.000000     O
    O   1.0     0.586403     0.045020     0.804934  Biso 1.000000     O
    O   1.0     0.061340     0.133330     0.750315  Biso 1.000000     O
    O   1.0     0.562271     0.132943     0.750028  Biso 1.000000     O
    O   1.0     0.187229     0.436807     0.207957  Biso 1.000000     O
    O   1.0     0.687572     0.436652     0.208728  Biso 1.000000     O
    O   1.0     0.186074     0.546039     0.175824  Biso 1.000000     O
    O   1.0     0.685833     0.545312     0.175767  Biso 1.000000     O
    O   1.0     0.500952     0.520055     0.156503  Biso 1.000000     O
    O   1.0     0.000000     0.520531     0.155710  Biso 1.000000     O
    O   1.0     0.504304     0.447351     0.228035  Biso 1.000000     O
    O   1.0     0.000000     0.449994     0.229031  Biso 1.000000     O
    O   1.0     0.104060     0.546004     0.310080  Biso 1.000000     O
    O   1.0     0.602683     0.546152     0.308696  Biso 1.000000     O
    O   1.0     0.082805     0.631561     0.252127  Biso 1.000000     O
    O   1.0     0.583759     0.632858     0.251410  Biso 1.000000     O
    O   1.0     0.054038     0.855827     0.622304  Biso 1.000000     O
    O   1.0     0.554887     0.855278     0.622211  Biso 1.000000     O
    O   1.0     0.066653     0.943754     0.566655  Biso 1.000000     O
    O   1.0     0.565311     0.943571     0.566474  Biso 1.000000     O
    O   1.0     0.161397     0.934792     0.706213  Biso 1.000000     O
    O   1.0     0.661701     0.934640     0.705627  Biso 1.000000     O
    O   1.0     0.156186     0.040171     0.668575  Biso 1.000000     O
    O   1.0     0.655963     0.039095     0.666814  Biso 1.000000     O
    O   1.0     0.477794     0.964321     0.722537  Biso 1.000000     O
    O   1.0     0.977554     0.964602     0.722881  Biso 1.000000     O
    O   1.0     0.469841     0.035474     0.649805  Biso 1.000000     O
    O   1.0     0.970523     0.034625     0.649248  Biso 1.000000     O
    O   1.0     0.418755     0.644744     0.877335  Biso 1.000000     O
    O   1.0     0.919824     0.644861     0.876892  Biso 1.000000     O
    O   1.0     0.397913     0.556066     0.929738  Biso 1.000000     O
    O   1.0     0.898490     0.556102     0.928999  Biso 1.000000     O
    O   1.0     0.413610     0.955012     0.195068  Biso 1.000000     O
    O   1.0     0.914580     0.954746     0.194894  Biso 1.000000     O
    O   1.0     0.437746     0.867088     0.249972  Biso 1.000000     O
    O   1.0     0.938678     0.866703     0.249690  Biso 1.000000     O
    O   1.0     0.312522     0.563392     0.791265  Biso 1.000000     O
    O   1.0     0.813014     0.563143     0.791956  Biso 1.000000     O
    O   1.0     0.314461     0.454798     0.824332  Biso 1.000000     O
    O   1.0     0.814010     0.453999     0.824207  Biso 1.000000     O
    O   1.0    -0.000268     0.479469     0.844260  Biso 1.000000     O
    O   1.0     0.499305     0.479986     0.843524  Biso 1.000000     O
    O   1.0    -0.004604     0.550027     0.770961  Biso 1.000000     O
    O   1.0     0.495766     0.552667     0.771973  Biso 1.000000     O
    O   1.0     0.397372     0.453873     0.691302  Biso 1.000000     O
    O   1.0     0.896055     0.454039     0.689976  Biso 1.000000     O
    O   1.0     0.416382     0.367172     0.748577  Biso 1.000000     O
    O   1.0     0.917239     0.368430     0.747891  Biso 1.000000     O
    O   1.0     0.445134     0.144736     0.377784  Biso 1.000000     O
    O   1.0     0.945970     0.144208     0.377704  Biso 1.000000     O
    O   1.0     0.434707     0.056446     0.433523  Biso 1.000000     O
    O   1.0     0.933363     0.056276     0.433349  Biso 1.000000     O
    O   1.0     0.338315     0.065387     0.294380  Biso 1.000000     O
    O   1.0     0.838620     0.065236     0.293791  Biso 1.000000     O
    O   1.0     0.344052     0.960929     0.333189  Biso 1.000000     O
    O   1.0     0.843835     0.959860     0.331432  Biso 1.000000     O
    O   1.0     0.022461     0.035427     0.277128  Biso 1.000000     O
    O   1.0     0.522225     0.035686     0.277460  Biso 1.000000     O
    O   1.0     0.029493     0.965400     0.350757  Biso 1.000000     O
    O   1.0     0.530179     0.964541     0.350199  Biso 1.000000     O
   Zn   1.0     0.097689     0.438133     0.227352  Biso 1.000000    Zn
   Zn   1.0     0.597394     0.437720     0.226949  Biso 1.000000    Zn
   Zn   1.0     0.093153     0.549863     0.154809  Biso 1.000000    Zn
   Zn   1.0     0.593282     0.549748     0.154318  Biso 1.000000    Zn
   Zn   1.0     0.069583     0.937593     0.722248  Biso 1.000000    Zn
   Zn   1.0     0.570392     0.937439     0.722110  Biso 1.000000    Zn
   Zn   1.0     0.063427     0.049902     0.649849  Biso 1.000000    Zn
   Zn   1.0     0.562643     0.049768     0.649529  Biso 1.000000    Zn
   Zn   1.0     0.402629     0.562313     0.773050  Biso 1.000000    Zn
   Zn   1.0     0.902780     0.561913     0.772696  Biso 1.000000    Zn
   Zn   1.0     0.407334     0.450323     0.845725  Biso 1.000000    Zn
   Zn   1.0     0.906876     0.450141     0.845187  Biso 1.000000    Zn
   Zn   1.0     0.429626     0.062582     0.277891  Biso 1.000000    Zn
   Zn   1.0     0.930434     0.062442     0.277758  Biso 1.000000    Zn
   Zn   1.0     0.437374     0.950254     0.350471  Biso 1.000000    Zn
   Zn   1.0     0.936591     0.950125     0.350159  Biso 1.000000    Zn
