#======================================================================

# CRYSTAL DATA

#----------------------------------------------------------------------

data_VESTA_phase_1


_pd_phase_name                         MOF
_cell_length_a                         13.69000
_cell_length_b                         16.70100
_cell_length_c                         16.70100
_cell_angle_alpha                      87.61300
_cell_angle_beta                       78.27100
_cell_angle_gamma                      78.21400
_symmetry_space_group_name_H-M         "P 1"
_symmetry_Int_Tables_number            1

loop_
_symmetry_equiv_pos_as_xyz
   "x, y, z"

loop_
   _atom_site_label
   _atom_site_occupancy
   _atom_site_fract_x
   _atom_site_fract_y
   _atom_site_fract_z
   _atom_site_adp_type
   _atom_site_B_iso_or_equiv
   _atom_site_type_symbol
    H   1.0     0.360661     0.777808     0.640228  Biso 1.000000     H
    H   1.0     0.860670     0.777808     0.640228  Biso 1.000000     H
    H   1.0     0.296346     0.873078     0.608675  Biso 1.000000     H
    H   1.0     0.796355     0.873078     0.608675  Biso 1.000000     H
    H   1.0     0.476389     0.866087     0.634347  Biso 1.000000     H
    H   1.0     0.976398     0.866087     0.634347  Biso 1.000000     H
    H   1.0     0.025082     0.797666     0.550674  Biso 1.000000     H
    H   1.0     0.525089     0.797667     0.550675  Biso 1.000000     H
    H   1.0     0.323449     0.986749     0.549403  Biso 1.000000     H
    H   1.0     0.823458     0.986749     0.549403  Biso 1.000000     H
    H   1.0     0.408789     0.009481     0.608911  Biso 1.000000     H
    H   1.0     0.908798     0.009481     0.608911  Biso 1.000000     H
    H   1.0     0.089241     0.949217     0.572945  Biso 1.000000     H
    H   1.0     0.589248     0.949217     0.572945  Biso 1.000000     H
    H   1.0     0.135183     0.879292     0.490381  Biso 1.000000     H
    H   1.0     0.635191     0.879292     0.490382  Biso 1.000000     H
    H   1.0     0.111379     0.719486     0.394692  Biso 1.000000     H
    H   1.0     0.611387     0.719486     0.394692  Biso 1.000000     H
    H   1.0     0.187620     0.795799     0.390688  Biso 1.000000     H
    H   1.0     0.687628     0.795799     0.390688  Biso 1.000000     H
    H   1.0     0.016741     0.713191     0.291176  Biso 1.000000     H
    H   1.0     0.516749     0.713192     0.291177  Biso 1.000000     H
    H   1.0     0.068685     0.721865     0.859862  Biso 1.000000     H
    H   1.0     0.568693     0.721866     0.859862  Biso 1.000000     H
    H   1.0     0.036316     0.626591     0.891591  Biso 1.000000     H
    H   1.0     0.536324     0.626592     0.891590  Biso 1.000000     H
    H   1.0     0.225606     0.634007     0.865841  Biso 1.000000     H
    H   1.0     0.725614     0.634008     0.865840  Biso 1.000000     H
    H   1.0     0.198450     0.702329     0.949589  Biso 1.000000     H
    H   1.0     0.698458     0.702330     0.949588  Biso 1.000000     H
    H   1.0     0.091584     0.512616     0.950322  Biso 1.000000     H
    H   1.0     0.591593     0.512617     0.950320  Biso 1.000000     H
    H   1.0     0.217860     0.490517     0.890964  Biso 1.000000     H
    H   1.0     0.717869     0.490519     0.890963  Biso 1.000000     H
    H   1.0     0.349670     0.551284     0.927235  Biso 1.000000     H
    H   1.0     0.849677     0.551285     0.927234  Biso 1.000000     H
    H   1.0     0.319375     0.621068     0.000000  Biso 1.000000     H
    H   1.0     0.819383     0.621068     0.000000  Biso 1.000000     H
    H   1.0     0.168193     0.780475     0.105269  Biso 1.000000     H
    H   1.0     0.668200     0.780476     0.105269  Biso 1.000000     H
    H   1.0     0.280458     0.704161     0.109374  Biso 1.000000     H
    H   1.0     0.780466     0.704160     0.109374  Biso 1.000000     H
    H   1.0     0.018946     0.786756     0.208626  Biso 1.000000     H
    H   1.0     0.518954     0.786757     0.208627  Biso 1.000000     H
    H   1.0     0.179904     0.859850     0.777853  Biso 1.000000     H
    H   1.0     0.679912     0.859850     0.777853  Biso 1.000000     H
    H   1.0     0.100065     0.891312     0.873141  Biso 1.000000     H
    H   1.0     0.600073     0.891311     0.873140  Biso 1.000000     H
    H   1.0     0.292872     0.865769     0.865995  Biso 1.000000     H
    H   1.0     0.792880     0.865768     0.865994  Biso 1.000000     H
    H   1.0     0.299741     0.949520     0.797655  Biso 1.000000     H
    H   1.0     0.799749     0.949520     0.797655  Biso 1.000000     H
    H   1.0     0.097995     0.950487     0.986901  Biso 1.000000     H
    H   1.0     0.598003     0.950486     0.986899  Biso 1.000000     H
    H   1.0     0.213088     0.891025     0.009438  Biso 1.000000     H
    H   1.0     0.713096     0.891024     0.009437  Biso 1.000000     H
    H   1.0     0.375376     0.927120     0.949059  Biso 1.000000     H
    H   1.0     0.875384     0.927120     0.949059  Biso 1.000000     H
    H   1.0     0.380050     0.000000     0.879208  Biso 1.000000     H
    H   1.0     0.880058     0.000000     0.879208  Biso 1.000000     H
    H   1.0     0.308618     0.105291     0.719461  Biso 1.000000     H
    H   1.0     0.808626     0.105291     0.719461  Biso 1.000000     H
    H   1.0     0.382859     0.109323     0.795826  Biso 1.000000     H
    H   1.0     0.882867     0.109323     0.795825  Biso 1.000000     H
    H   1.0     0.162450     0.208765     0.713102  Biso 1.000000     H
    H   1.0     0.662457     0.208765     0.713102  Biso 1.000000     H
    H   1.0    -0.000146     0.640268     0.721983  Biso 1.000000     H
    H   1.0     0.499862     0.640268     0.721984  Biso 1.000000     H
    H   1.0     0.482979     0.608558     0.626788  Biso 1.000000     H
    H   1.0     0.982987     0.608557     0.626787  Biso 1.000000     H
    H   1.0     0.159499     0.634386     0.633786  Biso 1.000000     H
    H   1.0     0.659506     0.634386     0.633787  Biso 1.000000     H
    H   1.0     0.174293     0.550708     0.702220  Biso 1.000000     H
    H   1.0     0.674301     0.550708     0.702221  Biso 1.000000     H
    H   1.0     0.066851     0.549588     0.513020  Biso 1.000000     H
    H   1.0     0.566858     0.549588     0.513021  Biso 1.000000     H
    H   1.0     0.163537     0.608997     0.490444  Biso 1.000000     H
    H   1.0     0.663544     0.608998     0.490444  Biso 1.000000     H
    H   1.0     0.313872     0.572873     0.550876  Biso 1.000000     H
    H   1.0     0.813880     0.572873     0.550876  Biso 1.000000     H
    H   1.0     0.324977     0.490272     0.620789  Biso 1.000000     H
    H   1.0     0.824984     0.490272     0.620789  Biso 1.000000     H
    H   1.0     0.221341     0.394771     0.780397  Biso 1.000000     H
    H   1.0     0.721350     0.394771     0.780396  Biso 1.000000     H
    H   1.0     0.335604     0.390709     0.704166  Biso 1.000000     H
    H   1.0     0.835612     0.390709     0.704166  Biso 1.000000     H
    H   1.0     0.123603     0.291325     0.786643  Biso 1.000000     H
    H   1.0     0.623612     0.291325     0.786642  Biso 1.000000     H
    H   1.0     0.139355     0.222188     0.359750  Biso 1.000000     H
    H   1.0     0.639364     0.222188     0.359750  Biso 1.000000     H
    H   1.0     0.203670     0.126918     0.391303  Biso 1.000000     H
    H   1.0     0.703679     0.126918     0.391304  Biso 1.000000     H
    H   1.0     0.023628     0.133909     0.365631  Biso 1.000000     H
    H   1.0     0.523636     0.133908     0.365631  Biso 1.000000     H
    H   1.0     0.474936     0.202329     0.449303  Biso 1.000000     H
    H   1.0     0.974944     0.202329     0.449304  Biso 1.000000     H
    H   1.0     0.176568     0.013247     0.450575  Biso 1.000000     H
    H   1.0     0.676575     0.013246     0.450575  Biso 1.000000     H
    H   1.0     0.091227     0.990515     0.391067  Biso 1.000000     H
    H   1.0     0.591235     0.990515     0.391068  Biso 1.000000     H
    H   1.0     0.410778     0.050779     0.427033  Biso 1.000000     H
    H   1.0     0.910785     0.050779     0.427033  Biso 1.000000     H
    H   1.0     0.364834     0.120704     0.509597  Biso 1.000000     H
    H   1.0     0.864842     0.120704     0.509596  Biso 1.000000     H
    H   1.0     0.388639     0.280511     0.605286  Biso 1.000000     H
    H   1.0     0.888646     0.280510     0.605286  Biso 1.000000     H
    H   1.0     0.312397     0.204197     0.609290  Biso 1.000000     H
    H   1.0     0.812405     0.204197     0.609290  Biso 1.000000     H
    H   1.0     0.483276     0.286806     0.708801  Biso 1.000000     H
    H   1.0     0.983284     0.286805     0.708801  Biso 1.000000     H
    H   1.0     0.431333     0.278132     0.140115  Biso 1.000000     H
    H   1.0     0.931339     0.278132     0.140115  Biso 1.000000     H
    H   1.0     0.463702     0.373406     0.108386  Biso 1.000000     H
    H   1.0     0.963708     0.373406     0.108386  Biso 1.000000     H
    H   1.0     0.274412     0.365991     0.134137  Biso 1.000000     H
    H   1.0     0.774418     0.365990     0.134136  Biso 1.000000     H
    H   1.0     0.301567     0.297668     0.050390  Biso 1.000000     H
    H   1.0     0.801574     0.297668     0.050388  Biso 1.000000     H
    H   1.0     0.408432     0.487381     0.049657  Biso 1.000000     H
    H   1.0     0.908440     0.487381     0.049656  Biso 1.000000     H
    H   1.0     0.282157     0.509479     0.109014  Biso 1.000000     H
    H   1.0     0.782165     0.509479     0.109014  Biso 1.000000     H
    H   1.0     0.150349     0.448713     0.072743  Biso 1.000000     H
    H   1.0     0.650356     0.448713     0.072742  Biso 1.000000     H
    H   1.0     0.180642     0.378930    -0.009945  Biso 1.000000     H
    H   1.0     0.680650     0.378930    -0.009947  Biso 1.000000     H
    H   1.0     0.331826     0.219521     0.894708  Biso 1.000000     H
    H   1.0     0.831834     0.219521     0.894708  Biso 1.000000     H
    H   1.0     0.219559     0.295837     0.890603  Biso 1.000000     H
    H   1.0     0.719568     0.295837     0.890603  Biso 1.000000     H
    H   1.0     0.481070     0.213240     0.791352  Biso 1.000000     H
    H   1.0     0.981079     0.213240     0.791351  Biso 1.000000     H
    H   1.0     0.320115     0.140147     0.222126  Biso 1.000000     H
    H   1.0     0.820120     0.140147     0.222126  Biso 1.000000     H
    H   1.0     0.399953     0.108686     0.126838  Biso 1.000000     H
    H   1.0     0.899959     0.108687     0.126838  Biso 1.000000     H
    H   1.0     0.207146     0.134230     0.133985  Biso 1.000000     H
    H   1.0     0.707152     0.134228     0.133985  Biso 1.000000     H
    H   1.0     0.200277     0.050477     0.202324  Biso 1.000000     H
    H   1.0     0.700284     0.050476     0.202324  Biso 1.000000     H
    H   1.0     0.402023     0.049512     0.013079  Biso 1.000000     H
    H   1.0     0.902030     0.049512     0.013079  Biso 1.000000     H
    H   1.0     0.286929     0.108973     0.990540  Biso 1.000000     H
    H   1.0     0.786936     0.108973     0.990541  Biso 1.000000     H
    H   1.0     0.124641     0.072878     0.050919  Biso 1.000000     H
    H   1.0     0.624648     0.072877     0.050919  Biso 1.000000     H
    H   1.0     0.119967    -0.009764     0.120771  Biso 1.000000     H
    H   1.0     0.619974    -0.009765     0.120770  Biso 1.000000     H
    H   1.0     0.191398     0.894706     0.280516  Biso 1.000000     H
    H   1.0     0.691407     0.894706     0.280517  Biso 1.000000     H
    H   1.0     0.117158     0.890674     0.204153  Biso 1.000000     H
    H   1.0     0.617166     0.890674     0.204153  Biso 1.000000     H
    H   1.0     0.337569     0.791231     0.286875  Biso 1.000000     H
    H   1.0     0.837576     0.791231     0.286875  Biso 1.000000     H
    H   1.0     0.500165     0.359729     0.277993  Biso 1.000000     H
    H   1.0     0.000000     0.359729     0.277993  Biso 1.000000     H
    H   1.0     0.017039     0.391439     0.373189  Biso 1.000000     H
    H   1.0     0.517048     0.391439     0.373189  Biso 1.000000     H
    H   1.0     0.340521     0.365609     0.366190  Biso 1.000000     H
    H   1.0     0.840527     0.365610     0.366190  Biso 1.000000     H
    H   1.0     0.325726     0.449288     0.297757  Biso 1.000000     H
    H   1.0     0.825733     0.449289     0.297757  Biso 1.000000     H
    H   1.0     0.433168     0.450408     0.486957  Biso 1.000000     H
    H   1.0     0.933176     0.450408     0.486957  Biso 1.000000     H
    H   1.0     0.336482     0.390998     0.509534  Biso 1.000000     H
    H   1.0     0.836489     0.390999     0.509533  Biso 1.000000     H
    H   1.0     0.186145     0.427123     0.449101  Biso 1.000000     H
    H   1.0     0.686153     0.427124     0.449102  Biso 1.000000     H
    H   1.0     0.175042     0.509724     0.379187  Biso 1.000000     H
    H   1.0     0.675049     0.509724     0.379188  Biso 1.000000     H
    H   1.0     0.278675     0.605225     0.219581  Biso 1.000000     H
    H   1.0     0.778683     0.605225     0.219581  Biso 1.000000     H
    H   1.0     0.164414     0.609287     0.295811  Biso 1.000000     H
    H   1.0     0.664422     0.609288     0.295811  Biso 1.000000     H
    H   1.0     0.376414     0.708673     0.213335  Biso 1.000000     H
    H   1.0     0.876422     0.708672     0.213335  Biso 1.000000     H
    C   1.0     0.361396     0.822421     0.589916  Biso 1.000000     C
    C   1.0     0.861405     0.822420     0.589916  Biso 1.000000     C
    C   1.0     0.463610     0.849396     0.574405  Biso 1.000000     C
    C   1.0     0.963619     0.849396     0.574404  Biso 1.000000     C
    C   1.0     0.401550    -0.004956     0.546364  Biso 1.000000     C
    C   1.0     0.901559    -0.004956     0.546363  Biso 1.000000     C
    C   1.0     0.079094     0.934778     0.511245  Biso 1.000000     C
    C   1.0     0.579102     0.934778     0.511246  Biso 1.000000     C
    C   1.0     0.159520     0.755758     0.354298  Biso 1.000000     C
    C   1.0     0.659528     0.755759     0.354299  Biso 1.000000     C
    C   1.0     0.066721     0.677344     0.910259  Biso 1.000000     C
    C   1.0     0.566729     0.677345     0.910258  Biso 1.000000     C
    C   1.0     0.174708     0.650540     0.925792  Biso 1.000000     C
    C   1.0     0.674716     0.650541     0.925792  Biso 1.000000     C
    C   1.0     0.172233     0.504693     0.953498  Biso 1.000000     C
    C   1.0     0.672242     0.504694     0.953497  Biso 1.000000     C
    C   1.0     0.301644     0.565492     0.988949  Biso 1.000000     C
    C   1.0     0.801652     0.565492     0.988948  Biso 1.000000     C
    C   1.0     0.214301     0.744193     0.145706  Biso 1.000000     C
    C   1.0     0.714309     0.744193     0.145706  Biso 1.000000     C
    C   1.0     0.155629     0.910156     0.822465  Biso 1.000000     C
    C   1.0     0.655637     0.910156     0.822464  Biso 1.000000     C
    C   1.0     0.250184     0.925728     0.849380  Biso 1.000000     C
    C   1.0     0.750192     0.925728     0.849380  Biso 1.000000     C
    C   1.0     0.174619     0.953585    -0.004897  Biso 1.000000     C
    C   1.0     0.674627     0.953584    -0.004897  Biso 1.000000     C
    C   1.0     0.334482     0.988845     0.934695  Biso 1.000000     C
    C   1.0     0.834490     0.988845     0.934694  Biso 1.000000     C
    C   1.0     0.336633     0.145704     0.755768  Biso 1.000000     C
    C   1.0     0.836641     0.145705     0.755768  Biso 1.000000     C
    C   1.0     0.022869     0.589893     0.677452  Biso 1.000000     C
    C   1.0     0.522876     0.589893     0.677453  Biso 1.000000     C
    C   1.0     0.138504     0.574426     0.650490  Biso 1.000000     C
    C   1.0     0.638512     0.574426     0.650490  Biso 1.000000     C
    C   1.0     0.149088     0.546459     0.504835  Biso 1.000000     C
    C   1.0     0.649095     0.546459     0.504836  Biso 1.000000     C
    C   1.0     0.296548     0.511172     0.565275  Biso 1.000000     C
    C   1.0     0.796556     0.511172     0.565276  Biso 1.000000     C
    C   1.0     0.287562     0.354345     0.744174  Biso 1.000000     C
    C   1.0     0.787570     0.354344     0.744173  Biso 1.000000     C
    C   1.0     0.138621     0.177576     0.410062  Biso 1.000000     C
    C   1.0     0.638629     0.177575     0.410062  Biso 1.000000     C
    C   1.0     0.036407     0.150600     0.425573  Biso 1.000000     C
    C   1.0     0.536415     0.150599     0.425574  Biso 1.000000     C
    C   1.0     0.098466     0.000000     0.453615  Biso 1.000000     C
    C   1.0     0.598474     0.000000     0.453615  Biso 1.000000     C
    C   1.0     0.420924     0.065218     0.488733  Biso 1.000000     C
    C   1.0     0.920932     0.065218     0.488733  Biso 1.000000     C
    C   1.0     0.340498     0.244238     0.645678  Biso 1.000000     C
    C   1.0     0.840505     0.244238     0.645679  Biso 1.000000     C
    C   1.0     0.433297     0.322652     0.089720  Biso 1.000000     C
    C   1.0     0.933304     0.322653     0.089719  Biso 1.000000     C
    C   1.0     0.325310     0.349457     0.074186  Biso 1.000000     C
    C   1.0     0.825317     0.349457     0.074185  Biso 1.000000     C
    C   1.0     0.327783     0.495303     0.046480  Biso 1.000000     C
    C   1.0     0.827792     0.495304     0.046479  Biso 1.000000     C
    C   1.0     0.198374     0.434505     0.011030  Biso 1.000000     C
    C   1.0     0.698381     0.434506     0.011028  Biso 1.000000     C
    C   1.0     0.285716     0.255804     0.854273  Biso 1.000000     C
    C   1.0     0.785724     0.255804     0.854272  Biso 1.000000     C
    C   1.0     0.344389     0.089842     0.177514  Biso 1.000000     C
    C   1.0     0.844395     0.089842     0.177514  Biso 1.000000     C
    C   1.0     0.249834     0.074270     0.150599  Biso 1.000000     C
    C   1.0     0.749840     0.074269     0.150599  Biso 1.000000     C
    C   1.0     0.325398     0.046413     0.000000  Biso 1.000000     C
    C   1.0     0.825405     0.046413     0.000000  Biso 1.000000     C
    C   1.0     0.165535     0.011153     0.065285  Biso 1.000000     C
    C   1.0     0.665542     0.011152     0.065284  Biso 1.000000     C
    C   1.0     0.163384     0.854291     0.244210  Biso 1.000000     C
    C   1.0     0.663392     0.854292     0.244211  Biso 1.000000     C
    C   1.0     0.477150     0.410103     0.322525  Biso 1.000000     C
    C   1.0     0.977157     0.410103     0.322525  Biso 1.000000     C
    C   1.0     0.361515     0.425570     0.349487  Biso 1.000000     C
    C   1.0     0.861522     0.425570     0.349487  Biso 1.000000     C
    C   1.0     0.350931     0.453537     0.495142  Biso 1.000000     C
    C   1.0     0.850938     0.453537     0.495142  Biso 1.000000     C
    C   1.0     0.203470     0.488824     0.434701  Biso 1.000000     C
    C   1.0     0.703477     0.488825     0.434702  Biso 1.000000     C
    C   1.0     0.212455     0.645653     0.255804  Biso 1.000000     C
    C   1.0     0.712463     0.645653     0.255804  Biso 1.000000     C
    C   1.0     0.063271     0.749972     0.249925  Biso 1.000000     C
    C   1.0     0.563278     0.749973     0.249926  Biso 1.000000     C
    C   1.0     0.188452     0.250036     0.749900  Biso 1.000000     C
    C   1.0     0.688460     0.250036     0.749900  Biso 1.000000     C
    C   1.0     0.436748     0.250024     0.750053  Biso 1.000000     C
    C   1.0     0.936755     0.250024     0.750052  Biso 1.000000     C
    C   1.0     0.311564     0.749961     0.250078  Biso 1.000000     C
    C   1.0     0.811573     0.749961     0.250078  Biso 1.000000     C
    N   1.0     0.474996     0.919001     0.517145  Biso 1.000000     N
    N   1.0     0.975005     0.919001     0.517145  Biso 1.000000     N
    N   1.0     0.098038     0.806000     0.299784  Biso 1.000000     N
    N   1.0     0.598046     0.806000     0.299784  Biso 1.000000     N
    N   1.0     0.192642     0.580887     0.982953  Biso 1.000000     N
    N   1.0     0.692649     0.580888     0.982954  Biso 1.000000     N
    N   1.0     0.150745     0.693944     0.200145  Biso 1.000000     N
    N   1.0     0.650753     0.693944     0.200145  Biso 1.000000     N
    N   1.0     0.233250     0.982924     0.919012  Biso 1.000000     N
    N   1.0     0.733259     0.982923     0.919012  Biso 1.000000     N
    N   1.0     0.248038     0.200186     0.805962  Biso 1.000000     N
    N   1.0     0.748046     0.200185     0.805962  Biso 1.000000     N
    N   1.0     0.184585     0.517156     0.580924  Biso 1.000000     N
    N   1.0     0.684592     0.517157     0.580925  Biso 1.000000     N
    N   1.0     0.251108     0.299863     0.693913  Biso 1.000000     N
    N   1.0     0.751116     0.299863     0.693913  Biso 1.000000     N
    N   1.0     0.025021     0.080996     0.482834  Biso 1.000000     N
    N   1.0     0.525029     0.080996     0.482835  Biso 1.000000     N
    N   1.0     0.401979     0.193997     0.700194  Biso 1.000000     N
    N   1.0     0.901987     0.193996     0.700194  Biso 1.000000     N
    N   1.0     0.307377     0.419109     0.017023  Biso 1.000000     N
    N   1.0     0.807384     0.419110     0.017023  Biso 1.000000     N
    N   1.0     0.349272     0.306053     0.799833  Biso 1.000000     N
    N   1.0     0.849280     0.306053     0.799832  Biso 1.000000     N
    N   1.0     0.266766     0.017075     0.080966  Biso 1.000000     N
    N   1.0     0.766774     0.017074     0.080966  Biso 1.000000     N
    N   1.0     0.251979     0.799811     0.194015  Biso 1.000000     N
    N   1.0     0.751987     0.799811     0.194016  Biso 1.000000     N
    N   1.0     0.315433     0.482838     0.419053  Biso 1.000000     N
    N   1.0     0.815441     0.482839     0.419053  Biso 1.000000     N
    N   1.0     0.248910     0.700133     0.306065  Biso 1.000000     N
    N   1.0     0.748917     0.700133     0.306065  Biso 1.000000     N
    O   1.0     0.312062     0.833476     0.443735  Biso 1.000000     O
    O   1.0     0.812070     0.833476     0.443735  Biso 1.000000     O
    O   1.0     0.237936     0.739921     0.544945  Biso 1.000000     O
    O   1.0     0.737944     0.739921     0.544945  Biso 1.000000     O
    O   1.0     0.420987     0.704355     0.479033  Biso 1.000000     O
    O   1.0     0.920995     0.704355     0.479033  Biso 1.000000     O
    O   1.0     0.450010     0.666535     0.056373  Biso 1.000000     O
    O   1.0     0.950018     0.666535     0.056374  Biso 1.000000     O
    O   1.0     0.379857     0.760055     0.954981  Biso 1.000000     O
    O   1.0     0.879865     0.760055     0.954981  Biso 1.000000     O
    O   1.0     0.012405     0.795548     0.021036  Biso 1.000000     O
    O   1.0     0.512413     0.795548     0.021036  Biso 1.000000     O
    O   1.0     0.033348     0.056268     0.833533  Biso 1.000000     O
    O   1.0     0.533357     0.056268     0.833533  Biso 1.000000     O
    O   1.0     0.009467     0.954960     0.740131  Biso 1.000000     O
    O   1.0     0.509474     0.954960     0.740131  Biso 1.000000     O
    O   1.0     0.159529     0.021031     0.704339  Biso 1.000000     O
    O   1.0     0.659537     0.021031     0.704338  Biso 1.000000     O
    O   1.0     0.478989     0.443729     0.666586  Biso 1.000000     O
    O   1.0     0.978997     0.443728     0.666586  Biso 1.000000     O
    O   1.0     0.358607     0.544982     0.760263  Biso 1.000000     O
    O   1.0     0.858616     0.544981     0.760263  Biso 1.000000     O
    O   1.0     0.024219     0.478948     0.795509  Biso 1.000000     O
    O   1.0     0.524227     0.478948     0.795510  Biso 1.000000     O
    O   1.0     0.187955     0.166521     0.556243  Biso 1.000000     O
    O   1.0     0.687963     0.166521     0.556243  Biso 1.000000     O
    O   1.0     0.262081     0.260076     0.455032  Biso 1.000000     O
    O   1.0     0.762089     0.260076     0.455033  Biso 1.000000     O
    O   1.0     0.079030     0.295642     0.520945  Biso 1.000000     O
    O   1.0     0.579038     0.295642     0.520945  Biso 1.000000     O
    O   1.0     0.050007     0.333462     0.943604  Biso 1.000000     O
    O   1.0     0.550015     0.333462     0.943604  Biso 1.000000     O
    O   1.0     0.120160     0.239942     0.044997  Biso 1.000000     O
    O   1.0     0.620168     0.239942     0.044996  Biso 1.000000     O
    O   1.0     0.487612     0.204449     0.978942  Biso 1.000000     O
    O   1.0     0.987620     0.204449     0.978942  Biso 1.000000     O
    O   1.0     0.466669     0.943729     0.166445  Biso 1.000000     O
    O   1.0     0.966677     0.943729     0.166445  Biso 1.000000     O
    O   1.0     0.490552     0.045037     0.259847  Biso 1.000000     O
    O   1.0     0.990559     0.045037     0.259847  Biso 1.000000     O
    O   1.0     0.340489     0.978966     0.295639  Biso 1.000000     O
    O   1.0     0.840496     0.978965     0.295639  Biso 1.000000     O
    O   1.0     0.021028     0.556268     0.333392  Biso 1.000000     O
    O   1.0     0.521036     0.556268     0.333392  Biso 1.000000     O
    O   1.0     0.141410     0.455016     0.239715  Biso 1.000000     O
    O   1.0     0.641419     0.455016     0.239715  Biso 1.000000     O
    O   1.0     0.475799     0.521049     0.204468  Biso 1.000000     O
    O   1.0     0.975806     0.521049     0.204468  Biso 1.000000     O
    S   1.0     0.330741     0.770560     0.508259  Biso 1.000000     S
    S   1.0     0.830749     0.770559     0.508259  Biso 1.000000     S
    S   1.0     0.469618     0.729364     0.991789  Biso 1.000000     S
    S   1.0     0.969626     0.729364     0.991789  Biso 1.000000     S
    S   1.0     0.084069     0.991743     0.770641  Biso 1.000000     S
    S   1.0     0.584077     0.991743     0.770640  Biso 1.000000     S
    S   1.0     0.466622     0.508230     0.729457  Biso 1.000000     S
    S   1.0     0.966631     0.508230     0.729457  Biso 1.000000     S
    S   1.0     0.169276     0.229437     0.491719  Biso 1.000000     S
    S   1.0     0.669284     0.229437     0.491719  Biso 1.000000     S
    S   1.0     0.030399     0.270633     0.008188  Biso 1.000000     S
    S   1.0     0.530407     0.270633     0.008189  Biso 1.000000     S
    S   1.0     0.415950     0.008254     0.229337  Biso 1.000000     S
    S   1.0     0.915956     0.008254     0.229337  Biso 1.000000     S
    S   1.0     0.033395     0.491767     0.270520  Biso 1.000000     S
    S   1.0     0.533404     0.491767     0.270520  Biso 1.000000     S
   Ag   1.0     0.456593     0.892887     0.380361  Biso 1.000000    Ag
   Ag   1.0     0.956601     0.892887     0.380361  Biso 1.000000    Ag
   Ag   1.0     0.092669     0.606655     0.119659  Biso 1.000000    Ag
   Ag   1.0     0.592677     0.606655     0.119658  Biso 1.000000    Ag
   Ag   1.0     0.146469     0.119701     0.892950  Biso 1.000000    Ag
   Ag   1.0     0.646478     0.119701     0.892950  Biso 1.000000    Ag
   Ag   1.0     0.152943     0.380389     0.606813  Biso 1.000000    Ag
   Ag   1.0     0.652951     0.380389     0.606813  Biso 1.000000    Ag
   Ag   1.0     0.043424     0.107109     0.619617  Biso 1.000000    Ag
   Ag   1.0     0.543433     0.107109     0.619617  Biso 1.000000    Ag
   Ag   1.0     0.407348     0.393343     0.880319  Biso 1.000000    Ag
   Ag   1.0     0.907357     0.393343     0.880319  Biso 1.000000    Ag
   Ag   1.0     0.353547     0.880297     0.107028  Biso 1.000000    Ag
   Ag   1.0     0.853555     0.880296     0.107028  Biso 1.000000    Ag
   Ag   1.0     0.347075     0.619608     0.393164  Biso 1.000000    Ag
   Ag   1.0     0.847082     0.619608     0.393165  Biso 1.000000    Ag
