#======================================================================

# CRYSTAL DATA

#----------------------------------------------------------------------

data_VESTA_phase_1


_pd_phase_name                         MOF
_cell_length_a                         12.41600
_cell_length_b                         15.66200
_cell_length_c                         15.48300
_cell_angle_alpha                      89.97400
_cell_angle_beta                       89.98700
_cell_angle_gamma                      90.03300
_symmetry_space_group_name_H-M         "P 1"
_symmetry_Int_Tables_number            1

loop_
_symmetry_equiv_pos_as_xyz
   "x, y, z"

loop_
   _atom_site_label
   _atom_site_occupancy
   _atom_site_fract_x
   _atom_site_fract_y
   _atom_site_fract_z
   _atom_site_adp_type
   _atom_site_B_iso_or_equiv
   _atom_site_type_symbol
    H   1.0     0.772710     0.721304     0.088506  Biso 1.000000     H
    H   1.0     0.667533     0.598205     0.148262  Biso 1.000000     H
    H   1.0     0.842841     0.598387     0.375663  Biso 1.000000     H
    H   1.0     0.957601     0.721498     0.324403  Biso 1.000000     H
    H   1.0     0.227330     0.721476     0.911719  Biso 1.000000     H
    H   1.0     0.332174     0.598345     0.852082  Biso 1.000000     H
    H   1.0     0.156927     0.598707     0.624661  Biso 1.000000     H
    H   1.0     0.042507     0.721837     0.675776  Biso 1.000000     H
    H   1.0     0.727456     0.778607     0.588314  Biso 1.000000     H
    H   1.0     0.832532     0.901678     0.648003  Biso 1.000000     H
    H   1.0     0.657080     0.901347     0.875395  Biso 1.000000     H
    H   1.0     0.542422     0.778263     0.824222  Biso 1.000000     H
    H   1.0     0.272711     0.778513     0.411609  Biso 1.000000     H
    H   1.0     0.167745     0.901659     0.352001  Biso 1.000000     H
    H   1.0     0.342882     0.901494     0.124442  Biso 1.000000     H
    H   1.0     0.457400     0.778335     0.175551  Biso 1.000000     H
    H   1.0     0.227274     0.278809     0.911560  Biso 1.000000     H
    H   1.0     0.332512     0.401833     0.851731  Biso 1.000000     H
    H   1.0     0.157222     0.401597     0.624334  Biso 1.000000     H
    H   1.0     0.042405     0.278539     0.675648  Biso 1.000000     H
    H   1.0     0.772559     0.278549     0.088323  Biso 1.000000     H
    H   1.0     0.667678     0.401625     0.148018  Biso 1.000000     H
    H   1.0     0.843034     0.401309     0.375374  Biso 1.000000     H
    H   1.0     0.957506     0.278226     0.324212  Biso 1.000000     H
    H   1.0     0.272437     0.221195     0.411668  Biso 1.000000     H
    H   1.0     0.167389     0.098194     0.351813  Biso 1.000000     H
    H   1.0     0.343038     0.098643     0.124535  Biso 1.000000     H
    H   1.0     0.457686     0.221672     0.175857  Biso 1.000000     H
    H   1.0     0.727327     0.221299     0.588423  Biso 1.000000     H
    H   1.0     0.832255     0.098205     0.648173  Biso 1.000000     H
    H   1.0     0.657000     0.098515     0.875654  Biso 1.000000     H
    H   1.0     0.542507     0.221643     0.824419  Biso 1.000000     H
    C   1.0     0.933398     0.805316     0.171293  Biso 1.000000     C
    C   1.0     0.873666     0.731301     0.202129  Biso 1.000000     C
    C   1.0     0.791326     0.695035     0.151889  Biso 1.000000     C
    C   1.0     0.733458     0.626634     0.184686  Biso 1.000000     C
    C   1.0     0.832567     0.627095     0.311934  Biso 1.000000     C
    C   1.0     0.894272     0.695435     0.283546  Biso 1.000000     C
    C   1.0     0.066723     0.805602     0.829008  Biso 1.000000     C
    C   1.0     0.126498     0.731700     0.798053  Biso 1.000000     C
    C   1.0     0.208641     0.695261     0.848350  Biso 1.000000     C
    C   1.0     0.266432     0.626893     0.815566  Biso 1.000000     C
    C   1.0     0.167402     0.627434     0.688340  Biso 1.000000     C
    C   1.0     0.105744     0.695754     0.716707  Biso 1.000000     C
    C   1.0     0.566758     0.694422     0.671054  Biso 1.000000     C
    C   1.0     0.626409     0.768468     0.701915  Biso 1.000000     C
    C   1.0     0.708779     0.804813     0.651691  Biso 1.000000     C
    C   1.0     0.766632     0.873197     0.684472  Biso 1.000000     C
    C   1.0     0.667450     0.872653     0.811690  Biso 1.000000     C
    C   1.0     0.605755     0.804322     0.783314  Biso 1.000000     C
    C   1.0     0.433210     0.694482     0.328676  Biso 1.000000     C
    C   1.0     0.373536     0.768484     0.297888  Biso 1.000000     C
    C   1.0     0.291316     0.804778     0.348207  Biso 1.000000     C
    C   1.0     0.233547     0.873204     0.315482  Biso 1.000000     C
    C   1.0     0.332535     0.872760     0.188161  Biso 1.000000     C
    C   1.0     0.394144     0.804393     0.216471  Biso 1.000000     C
    C   1.0     0.066619     0.194701     0.828713  Biso 1.000000     C
    C   1.0     0.126353     0.268733     0.797912  Biso 1.000000     C
    C   1.0     0.208631     0.305063     0.848175  Biso 1.000000     C
    C   1.0     0.266570     0.373404     0.815324  Biso 1.000000     C
    C   1.0     0.167472     0.372906     0.688073  Biso 1.000000     C
    C   1.0     0.105708     0.304625     0.716513  Biso 1.000000     C
    C   1.0     0.933199     0.194395     0.171045  Biso 1.000000     C
    C   1.0     0.873447     0.268326     0.201967  Biso 1.000000     C
    C   1.0     0.791282     0.304764     0.151686  Biso 1.000000     C
    C   1.0     0.733479     0.373115     0.184498  Biso 1.000000     C
    C   1.0     0.832573     0.372593     0.311689  Biso 1.000000     C
    C   1.0     0.894242     0.304292     0.283298  Biso 1.000000     C
    C   1.0     0.433291     0.305414     0.329036  Biso 1.000000     C
    C   1.0     0.373496     0.231479     0.298071  Biso 1.000000     C
    C   1.0     0.291220     0.195011     0.348303  Biso 1.000000     C
    C   1.0     0.233309     0.126717     0.315403  Biso 1.000000     C
    C   1.0     0.332582     0.127320     0.188239  Biso 1.000000     C
    C   1.0     0.394348     0.195564     0.216730  Biso 1.000000     C
    C   1.0     0.566847     0.305474     0.671335  Biso 1.000000     C
    C   1.0     0.626446     0.231427     0.702114  Biso 1.000000     C
    C   1.0     0.708699     0.195106     0.651849  Biso 1.000000     C
    C   1.0     0.766424     0.126688     0.684635  Biso 1.000000     C
    C   1.0     0.667377     0.127205     0.811919  Biso 1.000000     C
    C   1.0     0.605812     0.195574     0.783554  Biso 1.000000     C
    N   1.0     0.983547     0.908139     0.092743  Biso 1.000000     N
    N   1.0     0.040178     0.910181     0.166711  Biso 1.000000     N
    N   1.0     0.010308     0.846117     0.217561  Biso 1.000000     N
    N   1.0     0.915859     0.842807     0.093867  Biso 1.000000     N
    N   1.0     0.752930     0.593133     0.263524  Biso 1.000000     N
    N   1.0     0.016662     0.908355     0.907542  Biso 1.000000     N
    N   1.0     0.959770     0.910254     0.833683  Biso 1.000000     N
    N   1.0     0.989736     0.846354     0.782791  Biso 1.000000     N
    N   1.0     0.084416     0.843114     0.906383  Biso 1.000000     N
    N   1.0     0.246922     0.593347     0.736787  Biso 1.000000     N
    N   1.0     0.516635     0.591677     0.592494  Biso 1.000000     N
    N   1.0     0.459712     0.589720     0.666368  Biso 1.000000     N
    N   1.0     0.489680     0.653641     0.717262  Biso 1.000000     N
    N   1.0     0.584250     0.657062     0.593576  Biso 1.000000     N
    N   1.0     0.747101     0.906686     0.763278  Biso 1.000000     N
    N   1.0     0.483357     0.591719     0.407216  Biso 1.000000     N
    N   1.0     0.539991     0.589711     0.333208  Biso 1.000000     N
    N   1.0     0.510024     0.653678     0.282323  Biso 1.000000     N
    N   1.0     0.415777     0.657060     0.406168  Biso 1.000000     N
    N   1.0     0.253000     0.906751     0.236645  Biso 1.000000     N
    N   1.0     0.016507     0.091830     0.907175  Biso 1.000000     N
    N   1.0     0.959961     0.089733     0.833155  Biso 1.000000     N
    N   1.0     0.989944     0.153765     0.782306  Biso 1.000000     N
    N   1.0     0.084009     0.157281     0.906195  Biso 1.000000     N
    N   1.0     0.247087     0.406894     0.736484  Biso 1.000000     N
    N   1.0     0.983278     0.091644     0.092530  Biso 1.000000     N
    N   1.0     0.040011     0.089623     0.166477  Biso 1.000000     N
    N   1.0     0.010032     0.153541     0.217343  Biso 1.000000     N
    N   1.0     0.915583     0.156921     0.093640  Biso 1.000000     N
    N   1.0     0.753008     0.406658     0.263275  Biso 1.000000     N
    N   1.0     0.483296     0.408251     0.407525  Biso 1.000000     N
    N   1.0     0.540197     0.410220     0.333632  Biso 1.000000     N
    N   1.0     0.510214     0.346298     0.282750  Biso 1.000000     N
    N   1.0     0.415623     0.342902     0.406425  Biso 1.000000     N
    N   1.0     0.252928     0.093230     0.236614  Biso 1.000000     N
    N   1.0     0.516671     0.408218     0.592807  Biso 1.000000     N
    N   1.0     0.460069     0.410255     0.666825  Biso 1.000000     N
    N   1.0     0.490004     0.346256     0.717681  Biso 1.000000     N
    N   1.0     0.584229     0.342855     0.593817  Biso 1.000000     N
    N   1.0     0.746969     0.093208     0.763495  Biso 1.000000     N
   Cl   1.0     0.216580     0.000222     0.036899  Biso 1.000000    Cl
   Cl   1.0     0.783405    -0.000136     0.963093  Biso 1.000000    Cl
   Cl   1.0     0.283463     0.500098     0.536926  Biso 1.000000    Cl
   Cl   1.0     0.716502     0.499864     0.463092  Biso 1.000000    Cl
   Cu   1.0    -0.000019     0.000019     0.000010  Biso 1.000000    Cu
   Cu   1.0     0.499983     0.499966     0.500007  Biso 1.000000    Cu
   Cu   1.0     0.156900    -0.000029     0.184910  Biso 1.000000    Cu
   Cu   1.0     0.843115    -0.000005     0.815083  Biso 1.000000    Cu
   Cu   1.0     0.343106     0.500051     0.684923  Biso 1.000000    Cu
   Cu   1.0     0.656865     0.499927     0.315092  Biso 1.000000    Cu
