#======================================================================

# CRYSTAL DATA

#----------------------------------------------------------------------

data_VESTA_phase_1


_pd_phase_name                         MOF
_cell_length_a                         11.27200
_cell_length_b                         24.21700
_cell_length_c                         23.21400
_cell_angle_alpha                      98.07900
_cell_angle_beta                       90.00700
_cell_angle_gamma                      89.99900
_symmetry_space_group_name_H-M         "P 1"
_symmetry_Int_Tables_number            1

loop_
_symmetry_equiv_pos_as_xyz
   "x, y, z"

loop_
   _atom_site_label
   _atom_site_occupancy
   _atom_site_fract_x
   _atom_site_fract_y
   _atom_site_fract_z
   _atom_site_adp_type
   _atom_site_B_iso_or_equiv
   _atom_site_type_symbol
    H   1.0     0.027572     0.326622     0.525926  Biso 1.000000     H
    H   1.0     0.027578     0.826618     0.525925  Biso 1.000000     H
    H   1.0     0.527573     0.326622     0.525927  Biso 1.000000     H
    H   1.0     0.527578     0.826619     0.525926  Biso 1.000000     H
    H   1.0     0.187108     0.392552     0.582796  Biso 1.000000     H
    H   1.0     0.187113     0.892547     0.582796  Biso 1.000000     H
    H   1.0     0.687110     0.392552     0.582795  Biso 1.000000     H
    H   1.0     0.687115     0.892547     0.582794  Biso 1.000000     H
    H   1.0     0.475863     0.235128     0.557948  Biso 1.000000     H
    H   1.0     0.475870     0.735124     0.557946  Biso 1.000000     H
    H   1.0     0.975864     0.235127     0.557947  Biso 1.000000     H
    H   1.0     0.975872     0.735123     0.557946  Biso 1.000000     H
    H   1.0     0.134078     0.301747     0.614942  Biso 1.000000     H
    H   1.0     0.134084     0.801742     0.614941  Biso 1.000000     H
    H   1.0     0.634080     0.301747     0.614942  Biso 1.000000     H
    H   1.0     0.634086     0.801742     0.614941  Biso 1.000000     H
    H   1.0     0.465067     0.159988     0.666039  Biso 1.000000     H
    H   1.0     0.465073     0.659983     0.666040  Biso 1.000000     H
    H   1.0     0.965068     0.159988     0.666040  Biso 1.000000     H
    H   1.0     0.965074     0.659983     0.666040  Biso 1.000000     H
    H   1.0     0.123795     0.236413     0.707101  Biso 1.000000     H
    H   1.0     0.123800     0.736408     0.707099  Biso 1.000000     H
    H   1.0     0.623796     0.236413     0.707101  Biso 1.000000     H
    H   1.0     0.623802     0.736408     0.707100  Biso 1.000000     H
    H   1.0     0.004027     0.161768     0.772606  Biso 1.000000     H
    H   1.0     0.004032     0.661763     0.772606  Biso 1.000000     H
    H   1.0     0.504028     0.161768     0.772605  Biso 1.000000     H
    H   1.0     0.504033     0.661764     0.772606  Biso 1.000000     H
    H   1.0     0.161981     0.235187     0.812762  Biso 1.000000     H
    H   1.0     0.161984     0.735183     0.812761  Biso 1.000000     H
    H   1.0     0.661982     0.235188     0.812762  Biso 1.000000     H
    H   1.0     0.661985     0.735182     0.812761  Biso 1.000000     H
    H   1.0     0.277597     0.423369     0.974029  Biso 1.000000     H
    H   1.0     0.277599     0.923366     0.974029  Biso 1.000000     H
    H   1.0     0.777598     0.423369     0.974029  Biso 1.000000     H
    H   1.0     0.777601     0.923367     0.974029  Biso 1.000000     H
    H   1.0     0.437012     0.357503     0.917239  Biso 1.000000     H
    H   1.0     0.437016     0.857499     0.917239  Biso 1.000000     H
    H   1.0     0.937012     0.357503     0.917240  Biso 1.000000     H
    H   1.0     0.937016     0.857499     0.917238  Biso 1.000000     H
    H   1.0     0.225936     0.014865     0.941984  Biso 1.000000     H
    H   1.0     0.225937     0.514862     0.941984  Biso 1.000000     H
    H   1.0     0.725938     0.014865     0.941984  Biso 1.000000     H
    H   1.0     0.725938     0.514862     0.941985  Biso 1.000000     H
    H   1.0     0.384031     0.448308     0.885075  Biso 1.000000     H
    H   1.0     0.384033     0.948304     0.885074  Biso 1.000000     H
    H   1.0     0.884032     0.448308     0.885076  Biso 1.000000     H
    H   1.0     0.884033     0.948304     0.885074  Biso 1.000000     H
    H   1.0     0.215073     0.090049     0.833947  Biso 1.000000     H
    H   1.0     0.215077     0.590044     0.833947  Biso 1.000000     H
    H   1.0     0.715075     0.090049     0.833947  Biso 1.000000     H
    H   1.0     0.715079     0.590044     0.833947  Biso 1.000000     H
    H   1.0     0.373873     0.013556     0.792818  Biso 1.000000     H
    H   1.0     0.373877     0.513551     0.792818  Biso 1.000000     H
    H   1.0     0.873874     0.013555     0.792818  Biso 1.000000     H
    H   1.0     0.873878     0.513550     0.792818  Biso 1.000000     H
    H   1.0     0.254069     0.088269     0.727389  Biso 1.000000     H
    H   1.0     0.254074     0.588264     0.727389  Biso 1.000000     H
    H   1.0     0.754070     0.088269     0.727389  Biso 1.000000     H
    H   1.0     0.754075     0.588264     0.727389  Biso 1.000000     H
    H   1.0     0.412091     0.014789     0.687166  Biso 1.000000     H
    H   1.0     0.412097     0.514783     0.687166  Biso 1.000000     H
    H   1.0     0.912093     0.014788     0.687166  Biso 1.000000     H
    H   1.0     0.912098     0.514782     0.687166  Biso 1.000000     H
    H   1.0     0.472421     0.173382     0.474051  Biso 1.000000     H
    H   1.0     0.472427     0.673378     0.474050  Biso 1.000000     H
    H   1.0     0.972422     0.173381     0.474050  Biso 1.000000     H
    H   1.0     0.972428     0.673378     0.474050  Biso 1.000000     H
    H   1.0     0.312885     0.107451     0.417182  Biso 1.000000     H
    H   1.0     0.312890     0.607446     0.417182  Biso 1.000000     H
    H   1.0     0.812885     0.107451     0.417183  Biso 1.000000     H
    H   1.0     0.812891     0.607446     0.417182  Biso 1.000000     H
    H   1.0     0.024131     0.264876     0.442030  Biso 1.000000     H
    H   1.0     0.024139     0.764872     0.442029  Biso 1.000000     H
    H   1.0     0.524133     0.264876     0.442030  Biso 1.000000     H
    H   1.0     0.524140     0.764872     0.442029  Biso 1.000000     H
    H   1.0     0.365916     0.198255     0.385035  Biso 1.000000     H
    H   1.0     0.365921     0.698250     0.385035  Biso 1.000000     H
    H   1.0     0.865916     0.198255     0.385035  Biso 1.000000     H
    H   1.0     0.865923     0.698250     0.385035  Biso 1.000000     H
    H   1.0     0.034932     0.340019     0.333943  Biso 1.000000     H
    H   1.0     0.034938     0.840014     0.333943  Biso 1.000000     H
    H   1.0     0.534933     0.340018     0.333942  Biso 1.000000     H
    H   1.0     0.534940     0.840013     0.333943  Biso 1.000000     H
    H   1.0     0.376204     0.263594     0.292880  Biso 1.000000     H
    H   1.0     0.376209     0.763589     0.292878  Biso 1.000000     H
    H   1.0     0.876205     0.263594     0.292880  Biso 1.000000     H
    H   1.0     0.876211     0.763589     0.292878  Biso 1.000000     H
    H   1.0     0.495970     0.338238     0.227376  Biso 1.000000     H
    H   1.0     0.495975     0.838234     0.227377  Biso 1.000000     H
    H   1.0     0.995971     0.338239     0.227376  Biso 1.000000     H
    H   1.0     0.995975     0.838235     0.227377  Biso 1.000000     H
    H   1.0     0.338016     0.264820     0.187219  Biso 1.000000     H
    H   1.0     0.338019     0.764816     0.187218  Biso 1.000000     H
    H   1.0     0.838018     0.264819     0.187218  Biso 1.000000     H
    H   1.0     0.838021     0.764815     0.187217  Biso 1.000000     H
    H   1.0     0.222404     0.076632     0.025947  Biso 1.000000     H
    H   1.0     0.222406     0.576630     0.025947  Biso 1.000000     H
    H   1.0     0.722405     0.076632     0.025948  Biso 1.000000     H
    H   1.0     0.722407     0.576629     0.025946  Biso 1.000000     H
    H   1.0     0.062986     0.142502     0.082739  Biso 1.000000     H
    H   1.0     0.062989     0.642497     0.082736  Biso 1.000000     H
    H   1.0     0.562986     0.142501     0.082739  Biso 1.000000     H
    H   1.0     0.562991     0.642497     0.082737  Biso 1.000000     H
    H   1.0     0.274069     0.485137     0.057991  Biso 1.000000     H
    H   1.0     0.274070     0.985134     0.057991  Biso 1.000000     H
    H   1.0     0.774070     0.485136     0.057991  Biso 1.000000     H
    H   1.0     0.774071     0.985134     0.057992  Biso 1.000000     H
    H   1.0     0.115972     0.051697     0.114902  Biso 1.000000     H
    H   1.0     0.115974     0.551693     0.114900  Biso 1.000000     H
    H   1.0     0.615973     0.051697     0.114902  Biso 1.000000     H
    H   1.0     0.615975     0.551692     0.114900  Biso 1.000000     H
    H   1.0     0.284923     0.409958     0.166034  Biso 1.000000     H
    H   1.0     0.284927     0.909953     0.166034  Biso 1.000000     H
    H   1.0     0.784925     0.409957     0.166034  Biso 1.000000     H
    H   1.0     0.784928     0.909953     0.166034  Biso 1.000000     H
    H   1.0     0.126123     0.486451     0.207164  Biso 1.000000     H
    H   1.0     0.126127     0.986447     0.207165  Biso 1.000000     H
    H   1.0     0.626124     0.486451     0.207164  Biso 1.000000     H
    H   1.0     0.626128     0.986446     0.207165  Biso 1.000000     H
    H   1.0     0.245925     0.411738     0.272591  Biso 1.000000     H
    H   1.0     0.245929     0.911731     0.272590  Biso 1.000000     H
    H   1.0     0.745926     0.411737     0.272591  Biso 1.000000     H
    H   1.0     0.745931     0.911731     0.272590  Biso 1.000000     H
    H   1.0     0.087902     0.485219     0.312816  Biso 1.000000     H
    H   1.0     0.087907     0.985212     0.312816  Biso 1.000000     H
    H   1.0     0.587903     0.485219     0.312816  Biso 1.000000     H
    H   1.0     0.587908     0.985212     0.312816  Biso 1.000000     H
    C   1.0     0.396303     0.419229     0.532064  Biso 1.000000     C
    C   1.0     0.396304     0.919228     0.532069  Biso 1.000000     C
    C   1.0     0.896303     0.419230     0.532066  Biso 1.000000     C
    C   1.0     0.896305     0.919229     0.532072  Biso 1.000000     C
    C   1.0     0.361298     0.364990     0.552319  Biso 1.000000     C
    C   1.0     0.361300     0.864984     0.552315  Biso 1.000000     C
    C   1.0     0.861298     0.364989     0.552316  Biso 1.000000     C
    C   1.0     0.861299     0.864983     0.552311  Biso 1.000000     C
    C   1.0     0.441990     0.320591     0.545713  Biso 1.000000     C
    C   1.0     0.441996     0.820587     0.545711  Biso 1.000000     C
    C   1.0     0.941991     0.320590     0.545711  Biso 1.000000     C
    C   1.0     0.941997     0.820586     0.545709  Biso 1.000000     C
    C   1.0     0.250417     0.358195     0.577826  Biso 1.000000     C
    C   1.0     0.250422     0.858190     0.577826  Biso 1.000000     C
    C   1.0     0.750418     0.358194     0.577825  Biso 1.000000     C
    C   1.0     0.750423     0.858189     0.577824  Biso 1.000000     C
    C   1.0     0.413054     0.269536     0.563072  Biso 1.000000     C
    C   1.0     0.413063     0.769533     0.563073  Biso 1.000000     C
    C   1.0     0.913056     0.269536     0.563072  Biso 1.000000     C
    C   1.0     0.913066     0.769533     0.563074  Biso 1.000000     C
    C   1.0     0.220523     0.307374     0.595780  Biso 1.000000     C
    C   1.0     0.220531     0.807370     0.595783  Biso 1.000000     C
    C   1.0     0.720526     0.307374     0.595781  Biso 1.000000     C
    C   1.0     0.720534     0.807371     0.595783  Biso 1.000000     C
    C   1.0     0.301455     0.263137     0.587493  Biso 1.000000     C
    C   1.0     0.301461     0.763132     0.587491  Biso 1.000000     C
    C   1.0     0.801456     0.263137     0.587492  Biso 1.000000     C
    C   1.0     0.801462     0.763132     0.587490  Biso 1.000000     C
    C   1.0     0.293030     0.198894     0.680897  Biso 1.000000     C
    C   1.0     0.293036     0.698890     0.680896  Biso 1.000000     C
    C   1.0     0.793032     0.198895     0.680897  Biso 1.000000     C
    C   1.0     0.793038     0.698890     0.680896  Biso 1.000000     C
    C   1.0     0.400405     0.177530     0.698378  Biso 1.000000     C
    C   1.0     0.400410     0.677524     0.698378  Biso 1.000000     C
    C   1.0     0.900405     0.177529     0.698379  Biso 1.000000     C
    C   1.0     0.900411     0.677524     0.698378  Biso 1.000000     C
    C   1.0     0.207561     0.220789     0.721611  Biso 1.000000     C
    C   1.0     0.207565     0.720783     0.721610  Biso 1.000000     C
    C   1.0     0.707562     0.220788     0.721611  Biso 1.000000     C
    C   1.0     0.707568     0.720783     0.721610  Biso 1.000000     C
    C   1.0     0.421535     0.178371     0.757752  Biso 1.000000     C
    C   1.0     0.421540     0.678367     0.757752  Biso 1.000000     C
    C   1.0     0.921536     0.178371     0.757752  Biso 1.000000     C
    C   1.0     0.921541     0.678366     0.757752  Biso 1.000000     C
    C   1.0     0.229155     0.220330     0.780545  Biso 1.000000     C
    C   1.0     0.229160     0.720326     0.780544  Biso 1.000000     C
    C   1.0     0.729157     0.220331     0.780545  Biso 1.000000     C
    C   1.0     0.729161     0.720325     0.780544  Biso 1.000000     C
    C   1.0     0.336334     0.199295     0.799143  Biso 1.000000     C
    C   1.0     0.336339     0.699293     0.799143  Biso 1.000000     C
    C   1.0     0.836337     0.199297     0.799143  Biso 1.000000     C
    C   1.0     0.836340     0.699290     0.799142  Biso 1.000000     C
    C   1.0     0.357224     0.197740     0.863432  Biso 1.000000     C
    C   1.0     0.357227     0.697734     0.863431  Biso 1.000000     C
    C   1.0     0.857225     0.197738     0.863431  Biso 1.000000     C
    C   1.0     0.857227     0.697735     0.863432  Biso 1.000000     C
    C   1.0     0.146274     0.330782     0.967912  Biso 1.000000     C
    C   1.0     0.146275     0.830777     0.967909  Biso 1.000000     C
    C   1.0     0.646275     0.330782     0.967912  Biso 1.000000     C
    C   1.0     0.646276     0.830777     0.967907  Biso 1.000000     C
    C   1.0     0.111264     0.385032     0.947678  Biso 1.000000     C
    C   1.0     0.111265     0.885030     0.947680  Biso 1.000000     C
    C   1.0     0.611265     0.385032     0.947677  Biso 1.000000     C
    C   1.0     0.611265     0.885031     0.947682  Biso 1.000000     C
    C   1.0     0.192002     0.429413     0.954253  Biso 1.000000     C
    C   1.0     0.192004     0.929410     0.954253  Biso 1.000000     C
    C   1.0     0.692003     0.429413     0.954253  Biso 1.000000     C
    C   1.0     0.692005     0.929411     0.954254  Biso 1.000000     C
    C   1.0     0.500362     0.391843     0.922185  Biso 1.000000     C
    C   1.0     0.500365     0.891841     0.922186  Biso 1.000000     C
    C   1.0     0.000000     0.391844     0.922185  Biso 1.000000     C
    C   1.0     0.000000     0.891840     0.922184  Biso 1.000000     C
    C   1.0     0.163096     0.480466     0.936877  Biso 1.000000     C
    C   1.0     0.163099     0.980463     0.936875  Biso 1.000000     C
    C   1.0     0.663097     0.480466     0.936877  Biso 1.000000     C
    C   1.0     0.663100     0.980463     0.936874  Biso 1.000000     C
    C   1.0     0.470496     0.442663     0.904217  Biso 1.000000     C
    C   1.0     0.470501     0.942659     0.904214  Biso 1.000000     C
    C   1.0     0.970497     0.442663     0.904217  Biso 1.000000     C
    C   1.0     0.970500     0.942658     0.904214  Biso 1.000000     C
    C   1.0     0.051471     0.486882     0.912478  Biso 1.000000     C
    C   1.0     0.051472     0.986879     0.912478  Biso 1.000000     C
    C   1.0     0.551472     0.486882     0.912478  Biso 1.000000     C
    C   1.0     0.551473     0.986880     0.912478  Biso 1.000000     C
    C   1.0     0.043065     0.051117     0.819060  Biso 1.000000     C
    C   1.0     0.043068     0.551113     0.819060  Biso 1.000000     C
    C   1.0     0.543066     0.051117     0.819060  Biso 1.000000     C
    C   1.0     0.543069     0.551114     0.819060  Biso 1.000000     C
    C   1.0     0.150430     0.072498     0.801596  Biso 1.000000     C
    C   1.0     0.150434     0.572493     0.801596  Biso 1.000000     C
    C   1.0     0.650431     0.072497     0.801596  Biso 1.000000     C
    C   1.0     0.650435     0.572493     0.801596  Biso 1.000000     C
    C   1.0     0.457629     0.029201     0.778329  Biso 1.000000     C
    C   1.0     0.457633     0.529196     0.778329  Biso 1.000000     C
    C   1.0     0.957629     0.029201     0.778329  Biso 1.000000     C
    C   1.0     0.957633     0.529196     0.778329  Biso 1.000000     C
    C   1.0     0.171579     0.071657     0.742227  Biso 1.000000     C
    C   1.0     0.171583     0.571651     0.742226  Biso 1.000000     C
    C   1.0     0.671580     0.071657     0.742226  Biso 1.000000     C
    C   1.0     0.671584     0.571652     0.742227  Biso 1.000000     C
    C   1.0     0.479237     0.029662     0.719399  Biso 1.000000     C
    C   1.0     0.479242     0.529656     0.719399  Biso 1.000000     C
    C   1.0     0.979238     0.029661     0.719399  Biso 1.000000     C
    C   1.0     0.979243     0.529655     0.719399  Biso 1.000000     C
    C   1.0     0.086399     0.050718     0.700822  Biso 1.000000     C
    C   1.0     0.086403     0.550713     0.700822  Biso 1.000000     C
    C   1.0     0.586399     0.050719     0.700822  Biso 1.000000     C
    C   1.0     0.586403     0.550714     0.700822  Biso 1.000000     C
    C   1.0     0.107268     0.052273     0.636535  Biso 1.000000     C
    C   1.0     0.107271     0.552269     0.636535  Biso 1.000000     C
    C   1.0     0.607269     0.052272     0.636535  Biso 1.000000     C
    C   1.0     0.607271     0.552268     0.636535  Biso 1.000000     C
    C   1.0     0.103691     0.080774     0.467914  Biso 1.000000     C
    C   1.0     0.103693     0.580773     0.467920  Biso 1.000000     C
    C   1.0     0.603693     0.080773     0.467911  Biso 1.000000     C
    C   1.0     0.603694     0.580772     0.467918  Biso 1.000000     C
    C   1.0     0.138697     0.135014     0.447661  Biso 1.000000     C
    C   1.0     0.138698     0.635008     0.447657  Biso 1.000000     C
    C   1.0     0.638700     0.135016     0.447665  Biso 1.000000     C
    C   1.0     0.638700     0.635009     0.447658  Biso 1.000000     C
    C   1.0     0.058003     0.179412     0.454265  Biso 1.000000     C
    C   1.0     0.058009     0.679408     0.454264  Biso 1.000000     C
    C   1.0     0.558005     0.179413     0.454267  Biso 1.000000     C
    C   1.0     0.558010     0.679408     0.454264  Biso 1.000000     C
    C   1.0     0.249577     0.141808     0.422151  Biso 1.000000     C
    C   1.0     0.249581     0.641804     0.422151  Biso 1.000000     C
    C   1.0     0.749578     0.141809     0.422153  Biso 1.000000     C
    C   1.0     0.749582     0.641804     0.422151  Biso 1.000000     C
    C   1.0     0.086939     0.230467     0.436904  Biso 1.000000     C
    C   1.0     0.086948     0.730464     0.436906  Biso 1.000000     C
    C   1.0     0.586939     0.230467     0.436904  Biso 1.000000     C
    C   1.0     0.586949     0.730464     0.436906  Biso 1.000000     C
    C   1.0     0.279470     0.192628     0.404196  Biso 1.000000     C
    C   1.0     0.279478     0.692624     0.404198  Biso 1.000000     C
    C   1.0     0.779469     0.192628     0.404195  Biso 1.000000     C
    C   1.0     0.779478     0.692624     0.404197  Biso 1.000000     C
    C   1.0     0.198540     0.236866     0.412486  Biso 1.000000     C
    C   1.0     0.198546     0.736861     0.412484  Biso 1.000000     C
    C   1.0     0.698542     0.236866     0.412487  Biso 1.000000     C
    C   1.0     0.698548     0.736862     0.412484  Biso 1.000000     C
    C   1.0     0.206968     0.301112     0.319084  Biso 1.000000     C
    C   1.0     0.206975     0.801108     0.319083  Biso 1.000000     C
    C   1.0     0.706969     0.301111     0.319084  Biso 1.000000     C
    C   1.0     0.706976     0.801107     0.319083  Biso 1.000000     C
    C   1.0     0.099594     0.322478     0.301603  Biso 1.000000     C
    C   1.0     0.099598     0.822473     0.301603  Biso 1.000000     C
    C   1.0     0.599596     0.322478     0.301603  Biso 1.000000     C
    C   1.0     0.599601     0.822473     0.301603  Biso 1.000000     C
    C   1.0     0.292438     0.279219     0.278370  Biso 1.000000     C
    C   1.0     0.292442     0.779213     0.278369  Biso 1.000000     C
    C   1.0     0.792440     0.279219     0.278370  Biso 1.000000     C
    C   1.0     0.792444     0.779214     0.278369  Biso 1.000000     C
    C   1.0     0.078462     0.321636     0.242230  Biso 1.000000     C
    C   1.0     0.078467     0.821632     0.242230  Biso 1.000000     C
    C   1.0     0.578463     0.321635     0.242230  Biso 1.000000     C
    C   1.0     0.578468     0.821631     0.242230  Biso 1.000000     C
    C   1.0     0.270842     0.279677     0.219436  Biso 1.000000     C
    C   1.0     0.270846     0.779673     0.219435  Biso 1.000000     C
    C   1.0     0.770843     0.279675     0.219436  Biso 1.000000     C
    C   1.0     0.770847     0.779672     0.219435  Biso 1.000000     C
    C   1.0     0.163662     0.300711     0.200839  Biso 1.000000     C
    C   1.0     0.163666     0.800708     0.200839  Biso 1.000000     C
    C   1.0     0.663661     0.300708     0.200839  Biso 1.000000     C
    C   1.0     0.663667     0.800706     0.200839  Biso 1.000000     C
    C   1.0     0.142769     0.302265     0.136550  Biso 1.000000     C
    C   1.0     0.142772     0.802261     0.136550  Biso 1.000000     C
    C   1.0     0.642769     0.302268     0.136551  Biso 1.000000     C
    C   1.0     0.642772     0.802262     0.136550  Biso 1.000000     C
    C   1.0     0.353721     0.169224     0.032075  Biso 1.000000     C
    C   1.0     0.353722     0.669220     0.032071  Biso 1.000000     C
    C   1.0     0.853721     0.169224     0.032074  Biso 1.000000     C
    C   1.0     0.853723     0.669220     0.032072  Biso 1.000000     C
    C   1.0     0.388737     0.114969     0.052297  Biso 1.000000     C
    C   1.0     0.388737     0.614967     0.052299  Biso 1.000000     C
    C   1.0     0.888737     0.114970     0.052298  Biso 1.000000     C
    C   1.0     0.888739     0.614967     0.052297  Biso 1.000000     C
    C   1.0     0.307999     0.070589     0.045724  Biso 1.000000     C
    C   1.0     0.308001     0.570586     0.045723  Biso 1.000000     C
    C   1.0     0.808000     0.070589     0.045724  Biso 1.000000     C
    C   1.0     0.808002     0.570586     0.045723  Biso 1.000000     C
    C   1.0    -0.000363     0.108160     0.077793  Biso 1.000000     C
    C   1.0    -0.000360     0.608156     0.077791  Biso 1.000000     C
    C   1.0     0.499638     0.108160     0.077792  Biso 1.000000     C
    C   1.0     0.499641     0.608157     0.077791  Biso 1.000000     C
    C   1.0     0.336905     0.019537     0.063103  Biso 1.000000     C
    C   1.0     0.336908     0.519534     0.063100  Biso 1.000000     C
    C   1.0     0.836907     0.019537     0.063102  Biso 1.000000     C
    C   1.0     0.836908     0.519534     0.063101  Biso 1.000000     C
    C   1.0     0.029504     0.057342     0.095763  Biso 1.000000     C
    C   1.0     0.029506     0.557338     0.095761  Biso 1.000000     C
    C   1.0     0.529504     0.057342     0.095763  Biso 1.000000     C
    C   1.0     0.529508     0.557338     0.095760  Biso 1.000000     C
    C   1.0     0.448532     0.013121     0.087500  Biso 1.000000     C
    C   1.0     0.448533     0.513118     0.087499  Biso 1.000000     C
    C   1.0     0.948533     0.013121     0.087500  Biso 1.000000     C
    C   1.0     0.948534     0.513118     0.087499  Biso 1.000000     C
    C   1.0     0.456931     0.448890     0.180921  Biso 1.000000     C
    C   1.0     0.456934     0.948885     0.180921  Biso 1.000000     C
    C   1.0     0.956932     0.448890     0.180921  Biso 1.000000     C
    C   1.0     0.956935     0.948886     0.180921  Biso 1.000000     C
    C   1.0     0.349567     0.427509     0.198385  Biso 1.000000     C
    C   1.0     0.349570     0.927504     0.198385  Biso 1.000000     C
    C   1.0     0.849567     0.427509     0.198385  Biso 1.000000     C
    C   1.0     0.849572     0.927504     0.198385  Biso 1.000000     C
    C   1.0     0.042367     0.470806     0.221653  Biso 1.000000     C
    C   1.0     0.042371     0.970801     0.221653  Biso 1.000000     C
    C   1.0     0.542369     0.470805     0.221653  Biso 1.000000     C
    C   1.0     0.542371     0.970801     0.221653  Biso 1.000000     C
    C   1.0     0.328415     0.428351     0.257754  Biso 1.000000     C
    C   1.0     0.328420     0.928344     0.257754  Biso 1.000000     C
    C   1.0     0.828416     0.428351     0.257755  Biso 1.000000     C
    C   1.0     0.828421     0.928344     0.257754  Biso 1.000000     C
    C   1.0     0.020756     0.470346     0.280583  Biso 1.000000     C
    C   1.0     0.020761     0.970340     0.280582  Biso 1.000000     C
    C   1.0     0.520757     0.470346     0.280583  Biso 1.000000     C
    C   1.0     0.520762     0.970339     0.280582  Biso 1.000000     C
    C   1.0     0.413593     0.449290     0.299160  Biso 1.000000     C
    C   1.0     0.413599     0.949282     0.299160  Biso 1.000000     C
    C   1.0     0.913595     0.449289     0.299160  Biso 1.000000     C
    C   1.0     0.913599     0.949284     0.299160  Biso 1.000000     C
    C   1.0     0.392724     0.447729     0.363446  Biso 1.000000     C
    C   1.0     0.392727     0.947728     0.363447  Biso 1.000000     C
    C   1.0     0.892726     0.447731     0.363447  Biso 1.000000     C
    C   1.0     0.892728     0.947727     0.363447  Biso 1.000000     C
    O   1.0     0.505090     0.428153     0.524746  Biso 1.000000     O
    O   1.0     0.505090     0.928149     0.524743  Biso 1.000000     O
    O   1.0     0.000000     0.428152     0.524745  Biso 1.000000     O
    O   1.0     0.000000     0.928148     0.524742  Biso 1.000000     O
    O   1.0     0.337438     0.155599     0.572401  Biso 1.000000     O
    O   1.0     0.337444     0.655594     0.572401  Biso 1.000000     O
    O   1.0     0.837439     0.155598     0.572401  Biso 1.000000     O
    O   1.0     0.837445     0.655594     0.572401  Biso 1.000000     O
    O   1.0     0.130733     0.192012     0.599747  Biso 1.000000     O
    O   1.0     0.130739     0.692008     0.599747  Biso 1.000000     O
    O   1.0     0.630735     0.192012     0.599748  Biso 1.000000     O
    O   1.0     0.630740     0.692008     0.599747  Biso 1.000000     O
    O   1.0     0.265573     0.199194     0.895275  Biso 1.000000     O
    O   1.0     0.265576     0.699191     0.895275  Biso 1.000000     O
    O   1.0     0.765575     0.199195     0.895275  Biso 1.000000     O
    O   1.0     0.765576     0.699191     0.895275  Biso 1.000000     O
    O   1.0     0.463976     0.194621     0.879985  Biso 1.000000     O
    O   1.0     0.463979     0.694618     0.879986  Biso 1.000000     O
    O   1.0     0.963978     0.194621     0.879985  Biso 1.000000     O
    O   1.0     0.963980     0.694618     0.879985  Biso 1.000000     O
    O   1.0     0.312520     0.453813     0.524684  Biso 1.000000     O
    O   1.0     0.312522     0.953811     0.524683  Biso 1.000000     O
    O   1.0     0.812521     0.453814     0.524683  Biso 1.000000     O
    O   1.0     0.812524     0.953811     0.524682  Biso 1.000000     O
    O   1.0     0.255063     0.321857     0.975239  Biso 1.000000     O
    O   1.0     0.255064     0.821855     0.975240  Biso 1.000000     O
    O   1.0     0.755064     0.321857     0.975239  Biso 1.000000     O
    O   1.0     0.755064     0.821855     0.975241  Biso 1.000000     O
    O   1.0     0.087470     0.094422     0.927558  Biso 1.000000     O
    O   1.0     0.087472     0.594420     0.927558  Biso 1.000000     O
    O   1.0     0.587471     0.094422     0.927558  Biso 1.000000     O
    O   1.0     0.587474     0.594420     0.927559  Biso 1.000000     O
    O   1.0     0.380763     0.058007     0.900204  Biso 1.000000     O
    O   1.0     0.380765     0.558005     0.900204  Biso 1.000000     O
    O   1.0     0.880763     0.058007     0.900204  Biso 1.000000     O
    O   1.0     0.880765     0.558005     0.900204  Biso 1.000000     O
    O   1.0     0.015603     0.050821     0.604691  Biso 1.000000     O
    O   1.0     0.015605     0.550818     0.604691  Biso 1.000000     O
    O   1.0     0.515603     0.050822     0.604690  Biso 1.000000     O
    O   1.0     0.515605     0.550818     0.604691  Biso 1.000000     O
    O   1.0     0.214013     0.055394     0.619985  Biso 1.000000     O
    O   1.0     0.214015     0.555391     0.619985  Biso 1.000000     O
    O   1.0     0.714013     0.055394     0.619985  Biso 1.000000     O
    O   1.0     0.714016     0.555391     0.619985  Biso 1.000000     O
    O   1.0     0.062498     0.296199     0.975298  Biso 1.000000     O
    O   1.0     0.062500     0.796195     0.975298  Biso 1.000000     O
    O   1.0     0.562499     0.296199     0.975298  Biso 1.000000     O
    O   1.0     0.562501     0.796195     0.975299  Biso 1.000000     O
    O   1.0    -0.005096     0.071852     0.475238  Biso 1.000000     O
    O   1.0    -0.005096     0.571848     0.475235  Biso 1.000000     O
    O   1.0     0.494906     0.071853     0.475239  Biso 1.000000     O
    O   1.0     0.494906     0.571849     0.475236  Biso 1.000000     O
    O   1.0     0.162557     0.344404     0.427581  Biso 1.000000     O
    O   1.0     0.162563     0.844400     0.427581  Biso 1.000000     O
    O   1.0     0.662558     0.344404     0.427581  Biso 1.000000     O
    O   1.0     0.662564     0.844400     0.427580  Biso 1.000000     O
    O   1.0     0.369262     0.307992     0.400235  Biso 1.000000     O
    O   1.0     0.369268     0.807988     0.400235  Biso 1.000000     O
    O   1.0     0.869264     0.307992     0.400235  Biso 1.000000     O
    O   1.0     0.869269     0.807988     0.400235  Biso 1.000000     O
    O   1.0     0.234417     0.300810     0.104706  Biso 1.000000     O
    O   1.0     0.234419     0.800807     0.104705  Biso 1.000000     O
    O   1.0     0.734418     0.300809     0.104706  Biso 1.000000     O
    O   1.0     0.734420     0.800807     0.104705  Biso 1.000000     O
    O   1.0     0.036015     0.305383     0.119999  Biso 1.000000     O
    O   1.0     0.036017     0.805380     0.119999  Biso 1.000000     O
    O   1.0     0.536015     0.305382     0.119998  Biso 1.000000     O
    O   1.0     0.536018     0.805380     0.119999  Biso 1.000000     O
    O   1.0     0.187472     0.046190     0.475298  Biso 1.000000     O
    O   1.0     0.187474     0.546187     0.475298  Biso 1.000000     O
    O   1.0     0.687472     0.046189     0.475300  Biso 1.000000     O
    O   1.0     0.687475     0.546187     0.475298  Biso 1.000000     O
    O   1.0     0.244931     0.178144     0.024742  Biso 1.000000     O
    O   1.0     0.244932     0.678142     0.024743  Biso 1.000000     O
    O   1.0     0.744932     0.178145     0.024742  Biso 1.000000     O
    O   1.0     0.744933     0.678142     0.024743  Biso 1.000000     O
    O   1.0     0.412528     0.405581     0.072424  Biso 1.000000     O
    O   1.0     0.412530     0.905579     0.072424  Biso 1.000000     O
    O   1.0     0.912529     0.405581     0.072424  Biso 1.000000     O
    O   1.0     0.912531     0.905579     0.072424  Biso 1.000000     O
    O   1.0     0.119237     0.441996     0.099780  Biso 1.000000     O
    O   1.0     0.119239     0.941994     0.099779  Biso 1.000000     O
    O   1.0     0.619237     0.441996     0.099780  Biso 1.000000     O
    O   1.0     0.619239     0.941994     0.099779  Biso 1.000000     O
    O   1.0     0.484390     0.449184     0.395291  Biso 1.000000     O
    O   1.0     0.484392     0.949179     0.395292  Biso 1.000000     O
    O   1.0     0.984391     0.449183     0.395291  Biso 1.000000     O
    O   1.0     0.984393     0.949180     0.395292  Biso 1.000000     O
    O   1.0     0.285980     0.444611     0.379998  Biso 1.000000     O
    O   1.0     0.285982     0.944607     0.379997  Biso 1.000000     O
    O   1.0     0.785981     0.444611     0.379997  Biso 1.000000     O
    O   1.0     0.785983     0.944608     0.379997  Biso 1.000000     O
    O   1.0     0.437492     0.203807     0.024683  Biso 1.000000     O
    O   1.0     0.437495     0.703804     0.024684  Biso 1.000000     O
    O   1.0     0.937493     0.203807     0.024683  Biso 1.000000     O
    O   1.0     0.937495     0.703804     0.024683  Biso 1.000000     O
    S   1.0     0.259111     0.196923     0.605940  Biso 1.000000     S
    S   1.0     0.259118     0.696919     0.605940  Biso 1.000000     S
    S   1.0     0.759113     0.196923     0.605940  Biso 1.000000     S
    S   1.0     0.759119     0.696919     0.605939  Biso 1.000000     S
    S   1.0     0.009139     0.053096     0.894016  Biso 1.000000     S
    S   1.0     0.009141     0.553093     0.894016  Biso 1.000000     S
    S   1.0     0.509140     0.053096     0.894016  Biso 1.000000     S
    S   1.0     0.509142     0.553093     0.894016  Biso 1.000000     S
    S   1.0     0.240885     0.303081     0.394041  Biso 1.000000     S
    S   1.0     0.240891     0.803077     0.394040  Biso 1.000000     S
    S   1.0     0.740886     0.303081     0.394041  Biso 1.000000     S
    S   1.0     0.740892     0.803077     0.394040  Biso 1.000000     S
    S   1.0     0.490860     0.446908     0.105966  Biso 1.000000     S
    S   1.0     0.490862     0.946906     0.105965  Biso 1.000000     S
    S   1.0     0.990862     0.446908     0.105966  Biso 1.000000     S
    S   1.0     0.990863     0.946906     0.105965  Biso 1.000000     S
   Ca   1.0     0.145972     0.446997     0.454596  Biso 1.000000    Ca
   Ca   1.0     0.145974     0.946994     0.454596  Biso 1.000000    Ca
   Ca   1.0     0.645972     0.446997     0.454596  Biso 1.000000    Ca
   Ca   1.0     0.645975     0.946994     0.454595  Biso 1.000000    Ca
   Ca   1.0     0.395981     0.302993     0.045401  Biso 1.000000    Ca
   Ca   1.0     0.395983     0.802991     0.045401  Biso 1.000000    Ca
   Ca   1.0     0.895982     0.302993     0.045401  Biso 1.000000    Ca
   Ca   1.0     0.895984     0.802991     0.045401  Biso 1.000000    Ca
   Ca   1.0     0.354022     0.053006     0.545386  Biso 1.000000    Ca
   Ca   1.0     0.354025     0.553002     0.545386  Biso 1.000000    Ca
   Ca   1.0     0.854023     0.053006     0.545386  Biso 1.000000    Ca
   Ca   1.0     0.854026     0.553003     0.545386  Biso 1.000000    Ca
   Ca   1.0     0.104013     0.197011     0.954581  Biso 1.000000    Ca
   Ca   1.0     0.104016     0.697009     0.954581  Biso 1.000000    Ca
   Ca   1.0     0.604014     0.197011     0.954581  Biso 1.000000    Ca
   Ca   1.0     0.604016     0.697009     0.954581  Biso 1.000000    Ca
