#======================================================================

# CRYSTAL DATA

#----------------------------------------------------------------------

data_VESTA_phase_1


_pd_phase_name                         MOF
_cell_length_a                         11.29800
_cell_length_b                         24.39000
_cell_length_c                         22.76500
_cell_angle_alpha                      99.19600
_cell_angle_beta                       89.99000
_cell_angle_gamma                      89.96300
_symmetry_space_group_name_H-M         "P 1"
_symmetry_Int_Tables_number            1

loop_
_symmetry_equiv_pos_as_xyz
   "x, y, z"

loop_
   _atom_site_label
   _atom_site_occupancy
   _atom_site_fract_x
   _atom_site_fract_y
   _atom_site_fract_z
   _atom_site_adp_type
   _atom_site_B_iso_or_equiv
   _atom_site_type_symbol
    H   1.0     0.117715     0.101953     0.619781  Biso 1.000000     H
    H   1.0     0.117739     0.602001     0.619776  Biso 1.000000     H
    H   1.0     0.617710     0.101954     0.619784  Biso 1.000000     H
    H   1.0     0.617735     0.602002     0.619778  Biso 1.000000     H
    H   1.0     0.070362     0.119495     0.401206  Biso 1.000000     H
    H   1.0     0.070359     0.619538     0.401220  Biso 1.000000     H
    H   1.0     0.570344     0.119484     0.401207  Biso 1.000000     H
    H   1.0     0.570347     0.619533     0.401221  Biso 1.000000     H
    H   1.0     0.269858     0.213566     0.543152  Biso 1.000000     H
    H   1.0     0.269869     0.713624     0.543166  Biso 1.000000     H
    H   1.0     0.769842     0.213554     0.543153  Biso 1.000000     H
    H   1.0     0.769857     0.713617     0.543167  Biso 1.000000     H
    H   1.0     0.276799     0.172649     0.673993  Biso 1.000000     H
    H   1.0     0.276816     0.672682     0.673997  Biso 1.000000     H
    H   1.0     0.776796     0.172651     0.673995  Biso 1.000000     H
    H   1.0     0.776811     0.672683     0.673999  Biso 1.000000     H
    H   1.0     0.233804     0.090307     0.723663  Biso 1.000000     H
    H   1.0     0.233827     0.590328     0.723649  Biso 1.000000     H
    H   1.0     0.733800     0.090308     0.723665  Biso 1.000000     H
    H   1.0     0.733822     0.590328     0.723650  Biso 1.000000     H
    H   1.0     0.076301     0.022235     0.672761  Biso 1.000000     H
    H   1.0     0.076326     0.522268     0.672734  Biso 1.000000     H
    H   1.0     0.576296     0.022235     0.672763  Biso 1.000000     H
    H   1.0     0.576322     0.522269     0.672736  Biso 1.000000     H
    H   1.0     0.116808     0.141729     0.509499  Biso 1.000000     H
    H   1.0     0.116815     0.641781     0.509513  Biso 1.000000     H
    H   1.0     0.616791     0.141717     0.509501  Biso 1.000000     H
    H   1.0     0.616803     0.641775     0.509514  Biso 1.000000     H
    H   1.0     0.224486     0.190800     0.434306  Biso 1.000000     H
    H   1.0     0.224491     0.690851     0.434320  Biso 1.000000     H
    H   1.0     0.724470     0.190787     0.434308  Biso 1.000000     H
    H   1.0     0.724480     0.690845     0.434321  Biso 1.000000     H
    H   1.0     0.367877     0.147740     0.880029  Biso 1.000000     H
    H   1.0     0.367832     0.647759     0.880048  Biso 1.000000     H
    H   1.0     0.867870     0.147741     0.880030  Biso 1.000000     H
    H   1.0     0.867825     0.647759     0.880047  Biso 1.000000     H
    H   1.0     0.320358     0.130487     0.098535  Biso 1.000000     H
    H   1.0     0.320351     0.630465     0.098557  Biso 1.000000     H
    H   1.0     0.820358     0.130482     0.098536  Biso 1.000000     H
    H   1.0     0.820336     0.630473     0.098555  Biso 1.000000     H
    H   1.0     0.020025     0.036341     0.956729  Biso 1.000000     H
    H   1.0     0.019975     0.536366     0.956746  Biso 1.000000     H
    H   1.0     0.520014     0.036347     0.956728  Biso 1.000000     H
    H   1.0     0.519976     0.536356     0.956748  Biso 1.000000     H
    H   1.0     0.027065     0.077195     0.825820  Biso 1.000000     H
    H   1.0     0.027029     0.577210     0.825829  Biso 1.000000     H
    H   1.0     0.527060     0.077195     0.825820  Biso 1.000000     H
    H   1.0     0.527021     0.577210     0.825830  Biso 1.000000     H
    H   1.0     0.483981     0.159587     0.776217  Biso 1.000000     H
    H   1.0     0.483953     0.659598     0.776218  Biso 1.000000     H
    H   1.0     0.983974     0.159588     0.776217  Biso 1.000000     H
    H   1.0     0.983948     0.659598     0.776218  Biso 1.000000     H
    H   1.0     0.326351     0.227524     0.827136  Biso 1.000000     H
    H   1.0     0.326317     0.727538     0.827145  Biso 1.000000     H
    H   1.0     0.826344     0.227525     0.827136  Biso 1.000000     H
    H   1.0     0.826310     0.727538     0.827145  Biso 1.000000     H
    H   1.0     0.366841     0.108123     0.990232  Biso 1.000000     H
    H   1.0     0.366823     0.608109     0.990254  Biso 1.000000     H
    H   1.0     0.866841     0.108117     0.990233  Biso 1.000000     H
    H   1.0     0.866808     0.608118     0.990252  Biso 1.000000     H
    H   1.0     0.474624     0.059255     0.065588  Biso 1.000000     H
    H   1.0     0.474598     0.559250     0.065608  Biso 1.000000     H
    H   1.0     0.974622     0.059247     0.065589  Biso 1.000000     H
    H   1.0     0.974585     0.559260     0.065606  Biso 1.000000     H
    H   1.0     0.382242     0.398033     0.380216  Biso 1.000000     H
    H   1.0     0.382273     0.898084     0.380214  Biso 1.000000     H
    H   1.0     0.882235     0.398033     0.380217  Biso 1.000000     H
    H   1.0     0.882269     0.898086     0.380217  Biso 1.000000     H
    H   1.0     0.429626     0.380504     0.598779  Biso 1.000000     H
    H   1.0     0.429621     0.880544     0.598797  Biso 1.000000     H
    H   1.0     0.929609     0.380493     0.598781  Biso 1.000000     H
    H   1.0     0.929608     0.880538     0.598798  Biso 1.000000     H
    H   1.0     0.230109     0.286425     0.456825  Biso 1.000000     H
    H   1.0     0.230126     0.786485     0.456845  Biso 1.000000     H
    H   1.0     0.730093     0.286412     0.456827  Biso 1.000000     H
    H   1.0     0.730114     0.786479     0.456845  Biso 1.000000     H
    H   1.0     0.223159     0.327343     0.325999  Biso 1.000000     H
    H   1.0     0.223182     0.827378     0.326005  Biso 1.000000     H
    H   1.0     0.723155     0.327344     0.326001  Biso 1.000000     H
    H   1.0     0.723178     0.827379     0.326007  Biso 1.000000     H
    H   1.0     0.266155     0.409693     0.276341  Biso 1.000000     H
    H   1.0     0.266182     0.909716     0.276329  Biso 1.000000     H
    H   1.0     0.766150     0.409694     0.276342  Biso 1.000000     H
    H   1.0     0.766178     0.909717     0.276330  Biso 1.000000     H
    H   1.0     0.423659     0.477760     0.327249  Biso 1.000000     H
    H   1.0     0.423692     0.977797     0.327225  Biso 1.000000     H
    H   1.0     0.923652     0.477760     0.327251  Biso 1.000000     H
    H   1.0     0.923688     0.977798     0.327228  Biso 1.000000     H
    H   1.0     0.383165     0.358267     0.490486  Biso 1.000000     H
    H   1.0     0.383175     0.858319     0.490502  Biso 1.000000     H
    H   1.0     0.883147     0.358255     0.490487  Biso 1.000000     H
    H   1.0     0.883162     0.858312     0.490503  Biso 1.000000     H
    H   1.0     0.275492     0.309196     0.565671  Biso 1.000000     H
    H   1.0     0.275499     0.809247     0.565691  Biso 1.000000     H
    H   1.0     0.775477     0.309183     0.565673  Biso 1.000000     H
    H   1.0     0.775487     0.809240     0.565692  Biso 1.000000     H
    H   1.0     0.132140     0.352260     0.119945  Biso 1.000000     H
    H   1.0     0.132090     0.852283     0.119972  Biso 1.000000     H
    H   1.0     0.632131     0.352262     0.119948  Biso 1.000000     H
    H   1.0     0.632086     0.852282     0.119970  Biso 1.000000     H
    H   1.0     0.179623     0.369561     0.901435  Biso 1.000000     H
    H   1.0     0.179615     0.869541     0.901460  Biso 1.000000     H
    H   1.0     0.679626     0.369552     0.901436  Biso 1.000000     H
    H   1.0     0.679602     0.869547     0.901459  Biso 1.000000     H
    H   1.0     0.480004     0.463657     0.043243  Biso 1.000000     H
    H   1.0     0.479951     0.963684     0.043265  Biso 1.000000     H
    H   1.0     0.979990     0.463668     0.043242  Biso 1.000000     H
    H   1.0     0.979950     0.963677     0.043266  Biso 1.000000     H
    H   1.0     0.472945     0.422806     0.174165  Biso 1.000000     H
    H   1.0     0.472909     0.922822     0.174176  Biso 1.000000     H
    H   1.0     0.972942     0.422805     0.174163  Biso 1.000000     H
    H   1.0     0.972900     0.922823     0.174178  Biso 1.000000     H
    H   1.0     0.016015     0.340418     0.223777  Biso 1.000000     H
    H   1.0     0.015987     0.840432     0.223782  Biso 1.000000     H
    H   1.0     0.516007     0.340419     0.223779  Biso 1.000000     H
    H   1.0     0.515983     0.840430     0.223780  Biso 1.000000     H
    H   1.0     0.173648     0.272482     0.172850  Biso 1.000000     H
    H   1.0     0.173612     0.772499     0.172865  Biso 1.000000     H
    H   1.0     0.673639     0.272484     0.172854  Biso 1.000000     H
    H   1.0     0.673607     0.772498     0.172864  Biso 1.000000     H
    H   1.0     0.133153     0.391916     0.009737  Biso 1.000000     H
    H   1.0     0.133134     0.891903     0.009762  Biso 1.000000     H
    H   1.0     0.633156     0.391906     0.009739  Biso 1.000000     H
    H   1.0     0.633121     0.891910     0.009761  Biso 1.000000     H
    H   1.0     0.025377     0.440775     0.934381  Biso 1.000000     H
    H   1.0     0.025350     0.940773     0.934406  Biso 1.000000     H
    H   1.0     0.525379     0.440764     0.934383  Biso 1.000000     H
    H   1.0     0.525339     0.940780     0.934405  Biso 1.000000     H
    C   1.0     0.376802     0.002689     0.733434  Biso 1.000000     C
    C   1.0     0.376840     0.502704     0.733400  Biso 1.000000     C
    C   1.0     0.876797     0.002689     0.733434  Biso 1.000000     C
    C   1.0     0.876833     0.502704     0.733399  Biso 1.000000     C
    C   1.0     0.364029     0.140819     0.346167  Biso 1.000000     C
    C   1.0     0.364002     0.640854     0.346190  Biso 1.000000     C
    C   1.0     0.864024     0.140819     0.346167  Biso 1.000000     C
    C   1.0     0.863996     0.640854     0.346190  Biso 1.000000     C
    C   1.0     0.446483     0.179603     0.532155  Biso 1.000000     C
    C   1.0     0.446495     0.679660     0.532166  Biso 1.000000     C
    C   1.0     0.946477     0.179603     0.532155  Biso 1.000000     C
    C   1.0     0.946489     0.679660     0.532166  Biso 1.000000     C
    C   1.0     0.448857     0.141285     0.643357  Biso 1.000000     C
    C   1.0     0.448877     0.641327     0.643356  Biso 1.000000     C
    C   1.0     0.948852     0.141285     0.643357  Biso 1.000000     C
    C   1.0     0.948871     0.641327     0.643356  Biso 1.000000     C
    C   1.0     0.033210     0.098978     0.641983  Biso 1.000000     C
    C   1.0     0.033233     0.599021     0.641975  Biso 1.000000     C
    C   1.0     0.533204     0.098978     0.641984  Biso 1.000000     C
    C   1.0     0.533228     0.599022     0.641976  Biso 1.000000     C
    C   1.0     0.004642     0.139782     0.432432  Biso 1.000000     C
    C   1.0     0.004642     0.639829     0.432446  Biso 1.000000     C
    C   1.0     0.504629     0.139776     0.432433  Biso 1.000000     C
    C   1.0     0.504633     0.639825     0.432446  Biso 1.000000     C
    C   1.0     0.394060     0.153987     0.411274  Biso 1.000000     C
    C   1.0     0.394059     0.654033     0.411292  Biso 1.000000     C
    C   1.0     0.894055     0.153987     0.411274  Biso 1.000000     C
    C   1.0     0.894053     0.654033     0.411292  Biso 1.000000     C
    C   1.0     0.335097     0.193116     0.511928  Biso 1.000000     C
    C   1.0     0.335107     0.693173     0.511942  Biso 1.000000     C
    C   1.0     0.835086     0.193108     0.511929  Biso 1.000000     C
    C   1.0     0.835098     0.693169     0.511942  Biso 1.000000     C
    C   1.0     0.340518     0.138941     0.672554  Biso 1.000000     C
    C   1.0     0.340537     0.638974     0.672551  Biso 1.000000     C
    C   1.0     0.840513     0.138942     0.672555  Biso 1.000000     C
    C   1.0     0.840532     0.638974     0.672552  Biso 1.000000     C
    C   1.0     0.317212     0.093153     0.700464  Biso 1.000000     C
    C   1.0     0.317237     0.593180     0.700454  Biso 1.000000     C
    C   1.0     0.817207     0.093154     0.700465  Biso 1.000000     C
    C   1.0     0.817231     0.593180     0.700454  Biso 1.000000     C
    C   1.0     0.009596     0.054261     0.671250  Biso 1.000000     C
    C   1.0     0.009623     0.554297     0.671232  Biso 1.000000     C
    C   1.0     0.509590     0.054261     0.671251  Biso 1.000000     C
    C   1.0     0.509617     0.554298     0.671233  Biso 1.000000     C
    C   1.0     0.030789     0.152221     0.492951  Biso 1.000000     C
    C   1.0     0.030796     0.652274     0.492963  Biso 1.000000     C
    C   1.0     0.530776     0.152215     0.492952  Biso 1.000000     C
    C   1.0     0.530787     0.652270     0.492964  Biso 1.000000     C
    C   1.0     0.401205     0.050827     0.700491  Biso 1.000000     C
    C   1.0     0.401233     0.550854     0.700472  Biso 1.000000     C
    C   1.0     0.901199     0.050827     0.700491  Biso 1.000000     C
    C   1.0     0.901226     0.550854     0.700472  Biso 1.000000     C
    C   1.0     0.309776     0.180054     0.451440  Biso 1.000000     C
    C   1.0     0.309780     0.680107     0.451456  Biso 1.000000     C
    C   1.0     0.809765     0.180047     0.451441  Biso 1.000000     C
    C   1.0     0.809771     0.680103     0.451457  Biso 1.000000     C
    C   1.0     0.126865     0.247213     0.766558  Biso 1.000000     C
    C   1.0     0.126837     0.747218     0.766554  Biso 1.000000     C
    C   1.0     0.626859     0.247213     0.766558  Biso 1.000000     C
    C   1.0     0.626831     0.747218     0.766555  Biso 1.000000     C
    C   1.0     0.113944     0.109227     0.153598  Biso 1.000000     C
    C   1.0     0.113934     0.609223     0.153626  Biso 1.000000     C
    C   1.0     0.613938     0.109227     0.153598  Biso 1.000000     C
    C   1.0     0.613926     0.609223     0.153626  Biso 1.000000     C
    C   1.0     0.196590     0.070267     0.967666  Biso 1.000000     C
    C   1.0     0.196556     0.570275     0.967682  Biso 1.000000     C
    C   1.0     0.696585     0.070268     0.967666  Biso 1.000000     C
    C   1.0     0.696549     0.570275     0.967682  Biso 1.000000     C
    C   1.0     0.199085     0.108472     0.856449  Biso 1.000000     C
    C   1.0     0.199047     0.608489     0.856462  Biso 1.000000     C
    C   1.0     0.699079     0.108472     0.856449  Biso 1.000000     C
    C   1.0     0.699040     0.608489     0.856463  Biso 1.000000     C
    C   1.0     0.283380     0.150750     0.857838  Biso 1.000000     C
    C   1.0     0.283339     0.650768     0.857853  Biso 1.000000     C
    C   1.0     0.783373     0.150750     0.857838  Biso 1.000000     C
    C   1.0     0.783333     0.650768     0.857852  Biso 1.000000     C
    C   1.0     0.254686     0.110191     0.067333  Biso 1.000000     C
    C   1.0     0.254669     0.610178     0.067355  Biso 1.000000     C
    C   1.0     0.754683     0.110188     0.067334  Biso 1.000000     C
    C   1.0     0.754657     0.610182     0.067354  Biso 1.000000     C
    C   1.0     0.144134     0.096029     0.088514  Biso 1.000000     C
    C   1.0     0.144111     0.596026     0.088537  Biso 1.000000     C
    C   1.0     0.644128     0.096030     0.088514  Biso 1.000000     C
    C   1.0     0.644104     0.596025     0.088537  Biso 1.000000     C
    C   1.0     0.085214     0.056810     0.987922  Biso 1.000000     C
    C   1.0     0.085175     0.556825     0.987940  Biso 1.000000     C
    C   1.0     0.585205     0.056814     0.987922  Biso 1.000000     C
    C   1.0     0.585173     0.556819     0.987941  Biso 1.000000     C
    C   1.0     0.090747     0.110883     0.827275  Biso 1.000000     C
    C   1.0     0.090712     0.610897     0.827284  Biso 1.000000     C
    C   1.0     0.590741     0.110883     0.827275  Biso 1.000000     C
    C   1.0     0.590705     0.610897     0.827285  Biso 1.000000     C
    C   1.0     0.067391     0.156700     0.799401  Biso 1.000000     C
    C   1.0     0.067357     0.656712     0.799409  Biso 1.000000     C
    C   1.0     0.567384     0.156700     0.799401  Biso 1.000000     C
    C   1.0     0.567350     0.656713     0.799409  Biso 1.000000     C
    C   1.0     0.259705     0.195505     0.828618  Biso 1.000000     C
    C   1.0     0.259667     0.695521     0.828630  Biso 1.000000     C
    C   1.0     0.759698     0.195505     0.828619  Biso 1.000000     C
    C   1.0     0.759660     0.695521     0.828630  Biso 1.000000     C
    C   1.0     0.280856     0.097675     0.006814  Biso 1.000000     C
    C   1.0     0.280833     0.597668     0.006834  Biso 1.000000     C
    C   1.0     0.780853     0.097672     0.006815  Biso 1.000000     C
    C   1.0     0.780821     0.597673     0.006833  Biso 1.000000     C
    C   1.0     0.151327     0.199006     0.799405  Biso 1.000000     C
    C   1.0     0.151293     0.699019     0.799412  Biso 1.000000     C
    C   1.0     0.651320     0.199007     0.799405  Biso 1.000000     C
    C   1.0     0.651286     0.699019     0.799413  Biso 1.000000     C
    C   1.0     0.059890     0.069946     0.048400  Biso 1.000000     C
    C   1.0     0.059858     0.569955     0.048420  Biso 1.000000     C
    C   1.0     0.559881     0.069950     0.048399  Biso 1.000000     C
    C   1.0     0.559855     0.569949     0.048421  Biso 1.000000     C
    C   1.0     0.123151     0.497316     0.266585  Biso 1.000000     C
    C   1.0     0.123194     0.997332     0.266552  Biso 1.000000     C
    C   1.0     0.623146     0.497317     0.266584  Biso 1.000000     C
    C   1.0     0.623187     0.997332     0.266552  Biso 1.000000     C
    C   1.0     0.135971     0.359174     0.653804  Biso 1.000000     C
    C   1.0     0.135940     0.859202     0.653834  Biso 1.000000     C
    C   1.0     0.635965     0.359174     0.653804  Biso 1.000000     C
    C   1.0     0.635934     0.859203     0.653834  Biso 1.000000     C
    C   1.0     0.053476     0.320379     0.467830  Biso 1.000000     C
    C   1.0     0.053490     0.820435     0.467846  Biso 1.000000     C
    C   1.0     0.553471     0.320379     0.467831  Biso 1.000000     C
    C   1.0     0.553484     0.820435     0.467846  Biso 1.000000     C
    C   1.0     0.051101     0.358703     0.356637  Biso 1.000000     C
    C   1.0     0.051128     0.858748     0.356641  Biso 1.000000     C
    C   1.0     0.551096     0.358704     0.356638  Biso 1.000000     C
    C   1.0     0.551122     0.858748     0.356641  Biso 1.000000     C
    C   1.0     0.466748     0.401011     0.358016  Biso 1.000000     C
    C   1.0     0.466778     0.901056     0.358012  Biso 1.000000     C
    C   1.0     0.966741     0.401010     0.358016  Biso 1.000000     C
    C   1.0     0.966773     0.901057     0.358014  Biso 1.000000     C
    C   1.0     0.495335     0.360210     0.567551  Biso 1.000000     C
    C   1.0     0.495338     0.860256     0.567570  Biso 1.000000     C
    C   1.0     0.995322     0.360204     0.567552  Biso 1.000000     C
    C   1.0     0.995328     0.860253     0.567570  Biso 1.000000     C
    C   1.0     0.105913     0.345999     0.588703  Biso 1.000000     C
    C   1.0     0.105914     0.846045     0.588726  Biso 1.000000     C
    C   1.0     0.605908     0.345999     0.588703  Biso 1.000000     C
    C   1.0     0.605908     0.846045     0.588726  Biso 1.000000     C
    C   1.0     0.164869     0.306871     0.488052  Biso 1.000000     C
    C   1.0     0.164882     0.806929     0.488070  Biso 1.000000     C
    C   1.0     0.664858     0.306864     0.488053  Biso 1.000000     C
    C   1.0     0.664873     0.806926     0.488071  Biso 1.000000     C
    C   1.0     0.159441     0.361052     0.327442  Biso 1.000000     C
    C   1.0     0.159466     0.861087     0.327443  Biso 1.000000     C
    C   1.0     0.659436     0.361052     0.327443  Biso 1.000000     C
    C   1.0     0.659462     0.861087     0.327443  Biso 1.000000     C
    C   1.0     0.182744     0.406843     0.299536  Biso 1.000000     C
    C   1.0     0.182776     0.906872     0.299529  Biso 1.000000     C
    C   1.0     0.682740     0.406844     0.299537  Biso 1.000000     C
    C   1.0     0.682771     0.906873     0.299529  Biso 1.000000     C
    C   1.0     0.490361     0.445731     0.328754  Biso 1.000000     C
    C   1.0     0.490395     0.945770     0.328740  Biso 1.000000     C
    C   1.0     0.990354     0.445731     0.328755  Biso 1.000000     C
    C   1.0     0.990390     0.945771     0.328742  Biso 1.000000     C
    C   1.0     0.469181     0.347769     0.507034  Biso 1.000000     C
    C   1.0     0.469191     0.847822     0.507050  Biso 1.000000     C
    C   1.0     0.969168     0.347763     0.507034  Biso 1.000000     C
    C   1.0     0.969181     0.847817     0.507051  Biso 1.000000     C
    C   1.0     0.098751     0.449169     0.299515  Biso 1.000000     C
    C   1.0     0.098787     0.949200     0.299500  Biso 1.000000     C
    C   1.0     0.598746     0.449170     0.299515  Biso 1.000000     C
    C   1.0     0.598780     0.949199     0.299499  Biso 1.000000     C
    C   1.0     0.190198     0.319935     0.548537  Biso 1.000000     C
    C   1.0     0.190205     0.819988     0.548558  Biso 1.000000     C
    C   1.0     0.690187     0.319927     0.548538  Biso 1.000000     C
    C   1.0     0.690195     0.819984     0.548558  Biso 1.000000     C
    C   1.0     0.373124     0.252798     0.233441  Biso 1.000000     C
    C   1.0     0.373098     0.752803     0.233436  Biso 1.000000     C
    C   1.0     0.873117     0.252799     0.233442  Biso 1.000000     C
    C   1.0     0.873091     0.752803     0.233436  Biso 1.000000     C
    C   1.0     0.386031     0.390796     0.846361  Biso 1.000000     C
    C   1.0     0.386024     0.890795     0.846394  Biso 1.000000     C
    C   1.0     0.886025     0.390796     0.846361  Biso 1.000000     C
    C   1.0     0.886018     0.890795     0.846394  Biso 1.000000     C
    C   1.0     0.303425     0.429747     0.032310  Biso 1.000000     C
    C   1.0     0.303387     0.929756     0.032329  Biso 1.000000     C
    C   1.0     0.803419     0.429747     0.032310  Biso 1.000000     C
    C   1.0     0.803381     0.929756     0.032329  Biso 1.000000     C
    C   1.0     0.300927     0.391528     0.143530  Biso 1.000000     C
    C   1.0     0.300888     0.891548     0.143547  Biso 1.000000     C
    C   1.0     0.800921     0.391529     0.143531  Biso 1.000000     C
    C   1.0     0.800881     0.891548     0.143547  Biso 1.000000     C
    C   1.0     0.216632     0.349251     0.142141  Biso 1.000000     C
    C   1.0     0.216589     0.849272     0.142161  Biso 1.000000     C
    C   1.0     0.716624     0.349252     0.142143  Biso 1.000000     C
    C   1.0     0.716583     0.849272     0.142160  Biso 1.000000     C
    C   1.0     0.245305     0.389849     0.932636  Biso 1.000000     C
    C   1.0     0.245287     0.889837     0.932661  Biso 1.000000     C
    C   1.0     0.745305     0.389844     0.932637  Biso 1.000000     C
    C   1.0     0.745277     0.889840     0.932661  Biso 1.000000     C
    C   1.0     0.355863     0.403999     0.911451  Biso 1.000000     C
    C   1.0     0.355840     0.903997     0.911479  Biso 1.000000     C
    C   1.0     0.855858     0.403999     0.911451  Biso 1.000000     C
    C   1.0     0.855833     0.903997     0.911479  Biso 1.000000     C
    C   1.0     0.414803     0.443198     0.012049  Biso 1.000000     C
    C   1.0     0.414762     0.943215     0.012071  Biso 1.000000     C
    C   1.0     0.914792     0.443204     0.012048  Biso 1.000000     C
    C   1.0     0.914759     0.943211     0.012072  Biso 1.000000     C
    C   1.0     0.409260     0.389119     0.172710  Biso 1.000000     C
    C   1.0     0.409226     0.889135     0.172721  Biso 1.000000     C
    C   1.0     0.909256     0.389119     0.172708  Biso 1.000000     C
    C   1.0     0.909218     0.889136     0.172723  Biso 1.000000     C
    C   1.0     0.432611     0.343304     0.200587  Biso 1.000000     C
    C   1.0     0.432578     0.843318     0.200597  Biso 1.000000     C
    C   1.0     0.932606     0.343303     0.200586  Biso 1.000000     C
    C   1.0     0.932570     0.843319     0.200598  Biso 1.000000     C
    C   1.0     0.240300     0.304498     0.171365  Biso 1.000000     C
    C   1.0     0.240260     0.804518     0.171382  Biso 1.000000     C
    C   1.0     0.740292     0.304499     0.171367  Biso 1.000000     C
    C   1.0     0.740254     0.804517     0.171381  Biso 1.000000     C
    C   1.0     0.219145     0.402357     0.993157  Biso 1.000000     C
    C   1.0     0.219120     0.902350     0.993181  Biso 1.000000     C
    C   1.0     0.719144     0.402352     0.993158  Biso 1.000000     C
    C   1.0     0.719110     0.902354     0.993181  Biso 1.000000     C
    C   1.0     0.348673     0.300999     0.200583  Biso 1.000000     C
    C   1.0     0.348638     0.801014     0.200595  Biso 1.000000     C
    C   1.0     0.848666     0.300999     0.200584  Biso 1.000000     C
    C   1.0     0.848632     0.801014     0.200595  Biso 1.000000     C
    C   1.0     0.440117     0.430070     0.951568  Biso 1.000000     C
    C   1.0     0.440084     0.930080     0.951593  Biso 1.000000     C
    C   1.0     0.940107     0.430076     0.951567  Biso 1.000000     C
    C   1.0     0.940080     0.930076     0.951594  Biso 1.000000     C
    O   1.0     0.404959     0.245363     0.632406  Biso 1.000000     O
    O   1.0     0.404916     0.745398     0.632418  Biso 1.000000     O
    O   1.0     0.904952     0.245363     0.632406  Biso 1.000000     O
    O   1.0     0.904909     0.745398     0.632418  Biso 1.000000     O
    O   1.0     0.449504     0.131653     0.308732  Biso 1.000000     O
    O   1.0     0.449458     0.631668     0.308746  Biso 1.000000     O
    O   1.0     0.949499     0.131653     0.308731  Biso 1.000000     O
    O   1.0     0.949452     0.631669     0.308746  Biso 1.000000     O
    O   1.0     0.112430     0.206855     0.611923  Biso 1.000000     O
    O   1.0     0.112418     0.706939     0.611944  Biso 1.000000     O
    O   1.0     0.612423     0.206854     0.611923  Biso 1.000000     O
    O   1.0     0.612412     0.706939     0.611944  Biso 1.000000     O
    O   1.0     0.268842     0.490613     0.740281  Biso 1.000000     O
    O   1.0     0.268791     0.990608     0.740300  Biso 1.000000     O
    O   1.0     0.768835     0.490613     0.740281  Biso 1.000000     O
    O   1.0     0.768786     0.990609     0.740300  Biso 1.000000     O
    O   1.0     0.465941     0.478945     0.751911  Biso 1.000000     O
    O   1.0     0.465885     0.978946     0.751960  Biso 1.000000     O
    O   1.0     0.965934     0.478945     0.751911  Biso 1.000000     O
    O   1.0     0.965880     0.978946     0.751960  Biso 1.000000     O
    O   1.0     0.255921     0.137062     0.331221  Biso 1.000000     O
    O   1.0     0.255881     0.637095     0.331268  Biso 1.000000     O
    O   1.0     0.755915     0.137061     0.331221  Biso 1.000000     O
    O   1.0     0.755875     0.637095     0.331268  Biso 1.000000     O
    O   1.0     0.154775     0.004511     0.867532  Biso 1.000000     O
    O   1.0     0.154769     0.504521     0.867534  Biso 1.000000     O
    O   1.0     0.654769     0.004511     0.867532  Biso 1.000000     O
    O   1.0     0.654763     0.504521     0.867534  Biso 1.000000     O
    O   1.0     0.199322     0.118446     0.191061  Biso 1.000000     O
    O   1.0     0.199319     0.618445     0.191085  Biso 1.000000     O
    O   1.0     0.699316     0.118446     0.191062  Biso 1.000000     O
    O   1.0     0.699312     0.618445     0.191085  Biso 1.000000     O
    O   1.0     0.362439     0.042578     0.887856  Biso 1.000000     O
    O   1.0     0.362413     0.542609     0.887871  Biso 1.000000     O
    O   1.0     0.862433     0.042578     0.887856  Biso 1.000000     O
    O   1.0     0.862407     0.542610     0.887871  Biso 1.000000     O
    O   1.0     0.018842     0.259342     0.759728  Biso 1.000000     O
    O   1.0     0.018815     0.759349     0.759726  Biso 1.000000     O
    O   1.0     0.518836     0.259342     0.759728  Biso 1.000000     O
    O   1.0     0.518809     0.759350     0.759726  Biso 1.000000     O
    O   1.0     0.215901     0.271001     0.748074  Biso 1.000000     O
    O   1.0     0.215875     0.771008     0.748076  Biso 1.000000     O
    O   1.0     0.715895     0.271001     0.748074  Biso 1.000000     O
    O   1.0     0.715869     0.771008     0.748076  Biso 1.000000     O
    O   1.0     0.005772     0.112927     0.168445  Biso 1.000000     O
    O   1.0     0.005768     0.612921     0.168485  Biso 1.000000     O
    O   1.0     0.505766     0.112927     0.168445  Biso 1.000000     O
    O   1.0     0.505761     0.612920     0.168485  Biso 1.000000     O
    O   1.0     0.095029     0.254628     0.367585  Biso 1.000000     O
    O   1.0     0.094989     0.754664     0.367598  Biso 1.000000     O
    O   1.0     0.595021     0.254628     0.367585  Biso 1.000000     O
    O   1.0     0.594982     0.754665     0.367598  Biso 1.000000     O
    O   1.0     0.050514     0.368346     0.691249  Biso 1.000000     O
    O   1.0     0.050462     0.868361     0.691268  Biso 1.000000     O
    O   1.0     0.550508     0.368347     0.691249  Biso 1.000000     O
    O   1.0     0.550456     0.868362     0.691267  Biso 1.000000     O
    O   1.0     0.387540     0.293116     0.388059  Biso 1.000000     O
    O   1.0     0.387534     0.793202     0.388081  Biso 1.000000     O
    O   1.0     0.887534     0.293114     0.388059  Biso 1.000000     O
    O   1.0     0.887528     0.793201     0.388081  Biso 1.000000     O
    O   1.0     0.231207     0.009412     0.259691  Biso 1.000000     O
    O   1.0     0.231153     0.509406     0.259711  Biso 1.000000     O
    O   1.0     0.731201     0.009412     0.259691  Biso 1.000000     O
    O   1.0     0.731147     0.509406     0.259710  Biso 1.000000     O
    O   1.0     0.034114     0.021072     0.248018  Biso 1.000000     O
    O   1.0     0.034056     0.521072     0.248063  Biso 1.000000     O
    O   1.0     0.534108     0.021072     0.248017  Biso 1.000000     O
    O   1.0     0.534051     0.521072     0.248062  Biso 1.000000     O
    O   1.0     0.244091     0.362932     0.668727  Biso 1.000000     O
    O   1.0     0.244048     0.862964     0.668782  Biso 1.000000     O
    O   1.0     0.744085     0.362931     0.668728  Biso 1.000000     O
    O   1.0     0.744042     0.862964     0.668782  Biso 1.000000     O
    O   1.0     0.345217     0.495494     0.132462  Biso 1.000000     O
    O   1.0     0.345212     0.995507     0.132467  Biso 1.000000     O
    O   1.0     0.845211     0.495495     0.132462  Biso 1.000000     O
    O   1.0     0.845206     0.995507     0.132467  Biso 1.000000     O
    O   1.0     0.300637     0.381574     0.808907  Biso 1.000000     O
    O   1.0     0.300641     0.881572     0.808934  Biso 1.000000     O
    O   1.0     0.800631     0.381573     0.808907  Biso 1.000000     O
    O   1.0     0.800634     0.881572     0.808934  Biso 1.000000     O
    O   1.0     0.137570     0.457417     0.112124  Biso 1.000000     O
    O   1.0     0.137543     0.957451     0.112143  Biso 1.000000     O
    O   1.0     0.637564     0.457417     0.112124  Biso 1.000000     O
    O   1.0     0.637537     0.957452     0.112143  Biso 1.000000     O
    O   1.0     0.481144     0.240665     0.240272  Biso 1.000000     O
    O   1.0     0.481119     0.740673     0.240269  Biso 1.000000     O
    O   1.0     0.981137     0.240665     0.240272  Biso 1.000000     O
    O   1.0     0.981113     0.740673     0.240269  Biso 1.000000     O
    O   1.0     0.284083     0.229008     0.251917  Biso 1.000000     O
    O   1.0     0.284061     0.729015     0.251919  Biso 1.000000     O
    O   1.0     0.784077     0.229008     0.251917  Biso 1.000000     O
    O   1.0     0.784054     0.729015     0.251919  Biso 1.000000     O
    O   1.0     0.494190     0.387100     0.831490  Biso 1.000000     O
    O   1.0     0.494192     0.887098     0.831541  Biso 1.000000     O
    O   1.0     0.994184     0.387101     0.831491  Biso 1.000000     O
    O   1.0     0.994185     0.887097     0.831540  Biso 1.000000     O
    S   1.0     0.484519     0.199319     0.608590  Biso 1.000000     S
    S   1.0     0.484517     0.699372     0.608601  Biso 1.000000     S
    S   1.0     0.984513     0.199319     0.608590  Biso 1.000000     S
    S   1.0     0.984511     0.699372     0.608601  Biso 1.000000     S
    S   1.0     0.234601     0.050414     0.891249  Biso 1.000000     S
    S   1.0     0.234571     0.550431     0.891261  Biso 1.000000     S
    S   1.0     0.734595     0.050414     0.891249  Biso 1.000000     S
    S   1.0     0.734564     0.550431     0.891261  Biso 1.000000     S
    S   1.0     0.015446     0.300663     0.391398  Biso 1.000000     S
    S   1.0     0.015450     0.800719     0.391412  Biso 1.000000     S
    S   1.0     0.515440     0.300664     0.391398  Biso 1.000000     S
    S   1.0     0.515443     0.800719     0.391412  Biso 1.000000     S
    S   1.0     0.265410     0.449588     0.108732  Biso 1.000000     S
    S   1.0     0.265379     0.949608     0.108747  Biso 1.000000     S
    S   1.0     0.765404     0.449588     0.108733  Biso 1.000000     S
    S   1.0     0.765373     0.949608     0.108747  Biso 1.000000     S
   Ca   1.0     0.382857     0.317448     0.723285  Biso 1.000000    Ca
   Ca   1.0     0.382827     0.817461     0.723301  Biso 1.000000    Ca
   Ca   1.0     0.882851     0.317448     0.723286  Biso 1.000000    Ca
   Ca   1.0     0.882821     0.817461     0.723302  Biso 1.000000    Ca
   Ca   1.0     0.132911     0.432470     0.776766  Biso 1.000000    Ca
   Ca   1.0     0.132883     0.932464     0.776793  Biso 1.000000    Ca
   Ca   1.0     0.632904     0.432470     0.776766  Biso 1.000000    Ca
   Ca   1.0     0.632877     0.932465     0.776793  Biso 1.000000    Ca
   Ca   1.0     0.117138     0.182559     0.276698  Biso 1.000000    Ca
   Ca   1.0     0.117111     0.682573     0.276712  Biso 1.000000    Ca
   Ca   1.0     0.617132     0.182558     0.276699  Biso 1.000000    Ca
   Ca   1.0     0.617105     0.682573     0.276712  Biso 1.000000    Ca
   Ca   1.0     0.367103     0.067557     0.223196  Biso 1.000000    Ca
   Ca   1.0     0.367071     0.567550     0.223221  Biso 1.000000    Ca
   Ca   1.0     0.867096     0.067557     0.223196  Biso 1.000000    Ca
   Ca   1.0     0.867065     0.567550     0.223221  Biso 1.000000    Ca
