#======================================================================

# CRYSTAL DATA

#----------------------------------------------------------------------

data_VESTA_phase_1


_pd_phase_name                         MOF
_cell_length_a                         11.30700
_cell_length_b                         24.27000
_cell_length_c                         22.85200
_cell_angle_alpha                      99.33700
_cell_angle_beta                       89.98800
_cell_angle_gamma                      90.00000
_symmetry_space_group_name_H-M         "P 1"
_symmetry_Int_Tables_number            1

loop_
_symmetry_equiv_pos_as_xyz
   "x, y, z"

loop_
   _atom_site_label
   _atom_site_occupancy
   _atom_site_fract_x
   _atom_site_fract_y
   _atom_site_fract_z
   _atom_site_adp_type
   _atom_site_B_iso_or_equiv
   _atom_site_type_symbol
    H   1.0     0.319259     0.131844     0.099172  Biso 1.000000     H
    H   1.0     0.319229     0.631886     0.099308  Biso 1.000000     H
    H   1.0     0.819249     0.131844     0.099172  Biso 1.000000     H
    H   1.0     0.819220     0.631885     0.099308  Biso 1.000000     H
    H   1.0     0.365439     0.109527     0.991185  Biso 1.000000     H
    H   1.0     0.365152     0.609578     0.991293  Biso 1.000000     H
    H   1.0     0.865429     0.109528     0.991185  Biso 1.000000     H
    H   1.0     0.865143     0.609577     0.991293  Biso 1.000000     H
    H   1.0     0.019135     0.036919     0.957817  Biso 1.000000     H
    H   1.0     0.018751     0.537004     0.958129  Biso 1.000000     H
    H   1.0     0.519126     0.036919     0.957817  Biso 1.000000     H
    H   1.0     0.518741     0.537004     0.958129  Biso 1.000000     H
    H   1.0     0.474034     0.059723     0.066325  Biso 1.000000     H
    H   1.0     0.473936     0.559789     0.066662  Biso 1.000000     H
    H   1.0     0.974021     0.059723     0.066325  Biso 1.000000     H
    H   1.0     0.973923     0.559788     0.066662  Biso 1.000000     H
    H   1.0     0.366261     0.148745     0.880627  Biso 1.000000     H
    H   1.0     0.365836     0.648699     0.880748  Biso 1.000000     H
    H   1.0     0.866252     0.148745     0.880626  Biso 1.000000     H
    H   1.0     0.865827     0.648698     0.880747  Biso 1.000000     H
    H   1.0     0.324854     0.228054     0.826798  Biso 1.000000     H
    H   1.0     0.324576     0.727968     0.826839  Biso 1.000000     H
    H   1.0     0.824845     0.228053     0.826797  Biso 1.000000     H
    H   1.0     0.824568     0.727967     0.826837  Biso 1.000000     H
    H   1.0     0.483281     0.158882     0.776187  Biso 1.000000     H
    H   1.0     0.482960     0.658848     0.776229  Biso 1.000000     H
    H   1.0     0.983268     0.158882     0.776187  Biso 1.000000     H
    H   1.0     0.982948     0.658848     0.776228  Biso 1.000000     H
    H   1.0     0.026123     0.076965     0.826856  Biso 1.000000     H
    H   1.0     0.025642     0.576976     0.826990  Biso 1.000000     H
    H   1.0     0.526113     0.076965     0.826856  Biso 1.000000     H
    H   1.0     0.525632     0.576976     0.826991  Biso 1.000000     H
    H   1.0     0.069646     0.118500     0.400394  Biso 1.000000     H
    H   1.0     0.069246     0.618432     0.400501  Biso 1.000000     H
    H   1.0     0.569636     0.118503     0.400393  Biso 1.000000     H
    H   1.0     0.569237     0.618435     0.400501  Biso 1.000000     H
    H   1.0     0.115256     0.140448     0.508455  Biso 1.000000     H
    H   1.0     0.114919     0.640441     0.508560  Biso 1.000000     H
    H   1.0     0.615246     0.140451     0.508455  Biso 1.000000     H
    H   1.0     0.614910     0.640444     0.508559  Biso 1.000000     H
    H   1.0     0.268637     0.212796     0.541734  Biso 1.000000     H
    H   1.0     0.268335     0.712829     0.541832  Biso 1.000000     H
    H   1.0     0.768628     0.212799     0.541734  Biso 1.000000     H
    H   1.0     0.768327     0.712832     0.541832  Biso 1.000000     H
    H   1.0     0.224124     0.190353     0.433153  Biso 1.000000     H
    H   1.0     0.223774     0.690339     0.433254  Biso 1.000000     H
    H   1.0     0.724115     0.190356     0.433153  Biso 1.000000     H
    H   1.0     0.723766     0.690343     0.433253  Biso 1.000000     H
    H   1.0     0.115799     0.100870     0.618842  Biso 1.000000     H
    H   1.0     0.115513     0.600879     0.618856  Biso 1.000000     H
    H   1.0     0.615788     0.100871     0.618843  Biso 1.000000     H
    H   1.0     0.615502     0.600880     0.618857  Biso 1.000000     H
    H   1.0     0.074890     0.021570     0.672747  Biso 1.000000     H
    H   1.0     0.074543     0.521556     0.672726  Biso 1.000000     H
    H   1.0     0.574879     0.021570     0.672749  Biso 1.000000     H
    H   1.0     0.574532     0.521556     0.672727  Biso 1.000000     H
    H   1.0     0.233105     0.090437     0.723525  Biso 1.000000     H
    H   1.0     0.232798     0.590459     0.723528  Biso 1.000000     H
    H   1.0     0.733095     0.090438     0.723527  Biso 1.000000     H
    H   1.0     0.732788     0.590460     0.723529  Biso 1.000000     H
    H   1.0     0.275427     0.172354     0.672793  Biso 1.000000     H
    H   1.0     0.275178     0.672395     0.672826  Biso 1.000000     H
    H   1.0     0.775417     0.172355     0.672794  Biso 1.000000     H
    H   1.0     0.775168     0.672396     0.672827  Biso 1.000000     H
    H   1.0     0.180920     0.368120     0.900701  Biso 1.000000     H
    H   1.0     0.180817     0.868144     0.900807  Biso 1.000000     H
    H   1.0     0.680910     0.368121     0.900701  Biso 1.000000     H
    H   1.0     0.680809     0.868142     0.900807  Biso 1.000000     H
    H   1.0     0.135004     0.390439     0.008718  Biso 1.000000     H
    H   1.0     0.134663     0.890445     0.008797  Biso 1.000000     H
    H   1.0     0.634995     0.390439     0.008718  Biso 1.000000     H
    H   1.0     0.634655     0.890444     0.008797  Biso 1.000000     H
    H   1.0     0.481406     0.463016     0.041865  Biso 1.000000     H
    H   1.0     0.480977     0.963046     0.042153  Biso 1.000000     H
    H   1.0     0.981397     0.463016     0.041865  Biso 1.000000     H
    H   1.0     0.980967     0.963047     0.042152  Biso 1.000000     H
    H   1.0     0.026211     0.440226     0.933332  Biso 1.000000     H
    H   1.0     0.026058     0.940254     0.933642  Biso 1.000000     H
    H   1.0     0.526198     0.440226     0.933332  Biso 1.000000     H
    H   1.0     0.526046     0.940252     0.933643  Biso 1.000000     H
    H   1.0     0.134356     0.351313     0.119243  Biso 1.000000     H
    H   1.0     0.133830     0.851238     0.119363  Biso 1.000000     H
    H   1.0     0.634348     0.351313     0.119242  Biso 1.000000     H
    H   1.0     0.633821     0.851238     0.119362  Biso 1.000000     H
    H   1.0     0.175614     0.272049     0.173163  Biso 1.000000     H
    H   1.0     0.175212     0.771932     0.173198  Biso 1.000000     H
    H   1.0     0.675606     0.272049     0.173162  Biso 1.000000     H
    H   1.0     0.675203     0.771932     0.173197  Biso 1.000000     H
    H   1.0     0.017218     0.341181     0.223783  Biso 1.000000     H
    H   1.0     0.016794     0.841093     0.223817  Biso 1.000000     H
    H   1.0     0.517206     0.341180     0.223781  Biso 1.000000     H
    H   1.0     0.516781     0.841093     0.223817  Biso 1.000000     H
    H   1.0     0.474539     0.423045     0.173007  Biso 1.000000     H
    H   1.0     0.473971     0.923009     0.173143  Biso 1.000000     H
    H   1.0     0.974529     0.423045     0.173008  Biso 1.000000     H
    H   1.0     0.973962     0.923009     0.173143  Biso 1.000000     H
    H   1.0     0.430866     0.381545     0.599501  Biso 1.000000     H
    H   1.0     0.430534     0.881493     0.599588  Biso 1.000000     H
    H   1.0     0.930856     0.381547     0.599501  Biso 1.000000     H
    H   1.0     0.930525     0.881495     0.599588  Biso 1.000000     H
    H   1.0     0.385230     0.359539     0.491438  Biso 1.000000     H
    H   1.0     0.384904     0.859538     0.491527  Biso 1.000000     H
    H   1.0     0.885220     0.359542     0.491437  Biso 1.000000     H
    H   1.0     0.884895     0.859541     0.491527  Biso 1.000000     H
    H   1.0     0.231824     0.287155     0.458195  Biso 1.000000     H
    H   1.0     0.231515     0.787183     0.458242  Biso 1.000000     H
    H   1.0     0.731816     0.287157     0.458194  Biso 1.000000     H
    H   1.0     0.731507     0.787186     0.458242  Biso 1.000000     H
    H   1.0     0.276343     0.309637     0.566778  Biso 1.000000     H
    H   1.0     0.276044     0.809632     0.566822  Biso 1.000000     H
    H   1.0     0.776334     0.309640     0.566778  Biso 1.000000     H
    H   1.0     0.776036     0.809635     0.566822  Biso 1.000000     H
    H   1.0     0.384660     0.399115     0.381168  Biso 1.000000     H
    H   1.0     0.384296     0.899110     0.381154  Biso 1.000000     H
    H   1.0     0.884648     0.399116     0.381169  Biso 1.000000     H
    H   1.0     0.884285     0.899110     0.381155  Biso 1.000000     H
    H   1.0     0.425610     0.478439     0.327292  Biso 1.000000     H
    H   1.0     0.425173     0.978415     0.327249  Biso 1.000000     H
    H   1.0     0.925600     0.478440     0.327294  Biso 1.000000     H
    H   1.0     0.925162     0.978416     0.327250  Biso 1.000000     H
    H   1.0     0.267365     0.409550     0.276492  Biso 1.000000     H
    H   1.0     0.266966     0.909568     0.276457  Biso 1.000000     H
    H   1.0     0.767355     0.409550     0.276492  Biso 1.000000     H
    H   1.0     0.766955     0.909568     0.276457  Biso 1.000000     H
    H   1.0     0.225008     0.327615     0.327199  Biso 1.000000     H
    H   1.0     0.224674     0.827645     0.327186  Biso 1.000000     H
    H   1.0     0.724999     0.327615     0.327200  Biso 1.000000     H
    H   1.0     0.724664     0.827645     0.327187  Biso 1.000000     H
    C   1.0     0.113779     0.110038     0.154140  Biso 1.000000     C
    C   1.0     0.113930     0.610029     0.154388  Biso 1.000000     C
    C   1.0     0.613769     0.110038     0.154139  Biso 1.000000     C
    C   1.0     0.613920     0.610030     0.154388  Biso 1.000000     C
    C   1.0     0.143345     0.096966     0.089195  Biso 1.000000     C
    C   1.0     0.143314     0.597006     0.089429  Biso 1.000000     C
    C   1.0     0.643335     0.096966     0.089195  Biso 1.000000     C
    C   1.0     0.643304     0.597005     0.089429  Biso 1.000000     C
    C   1.0     0.253615     0.111412     0.068051  Biso 1.000000     C
    C   1.0     0.253522     0.611456     0.068223  Biso 1.000000     C
    C   1.0     0.753606     0.111412     0.068051  Biso 1.000000     C
    C   1.0     0.753513     0.611455     0.068223  Biso 1.000000     C
    C   1.0     0.279589     0.098961     0.007714  Biso 1.000000     C
    C   1.0     0.279344     0.599012     0.007868  Biso 1.000000     C
    C   1.0     0.779579     0.098961     0.007714  Biso 1.000000     C
    C   1.0     0.779335     0.599012     0.007868  Biso 1.000000     C
    C   1.0     0.195342     0.071328     0.968706  Biso 1.000000     C
    C   1.0     0.195012     0.571385     0.968905  Biso 1.000000     C
    C   1.0     0.695333     0.071328     0.968706  Biso 1.000000     C
    C   1.0     0.695002     0.571384     0.968905  Biso 1.000000     C
    C   1.0     0.084227     0.057614     0.988913  Biso 1.000000     C
    C   1.0     0.083934     0.557690     0.989180  Biso 1.000000     C
    C   1.0     0.584217     0.057613     0.988913  Biso 1.000000     C
    C   1.0     0.583924     0.557690     0.989180  Biso 1.000000     C
    C   1.0     0.059078     0.070702     0.049215  Biso 1.000000     C
    C   1.0     0.058933     0.570770     0.049499  Biso 1.000000     C
    C   1.0     0.559068     0.070702     0.049215  Biso 1.000000     C
    C   1.0     0.558923     0.570770     0.049499  Biso 1.000000     C
    C   1.0     0.197830     0.108879     0.857306  Biso 1.000000     C
    C   1.0     0.197373     0.608866     0.857443  Biso 1.000000     C
    C   1.0     0.697821     0.108879     0.857306  Biso 1.000000     C
    C   1.0     0.697363     0.608866     0.857443  Biso 1.000000     C
    C   1.0     0.281948     0.151396     0.858311  Biso 1.000000     C
    C   1.0     0.281543     0.651356     0.858417  Biso 1.000000     C
    C   1.0     0.781938     0.151396     0.858310  Biso 1.000000     C
    C   1.0     0.781534     0.651356     0.858416  Biso 1.000000     C
    C   1.0     0.258375     0.195868     0.828544  Biso 1.000000     C
    C   1.0     0.258057     0.695803     0.828603  Biso 1.000000     C
    C   1.0     0.758365     0.195868     0.828543  Biso 1.000000     C
    C   1.0     0.758048     0.695803     0.828602  Biso 1.000000     C
    C   1.0     0.150323     0.198850     0.799094  Biso 1.000000     C
    C   1.0     0.150035     0.698792     0.799132  Biso 1.000000     C
    C   1.0     0.650313     0.198850     0.799094  Biso 1.000000     C
    C   1.0     0.650025     0.698792     0.799132  Biso 1.000000     C
    C   1.0     0.066484     0.156361     0.799518  Biso 1.000000     C
    C   1.0     0.066142     0.656327     0.799578  Biso 1.000000     C
    C   1.0     0.566474     0.156361     0.799518  Biso 1.000000     C
    C   1.0     0.566132     0.656327     0.799579  Biso 1.000000     C
    C   1.0     0.089728     0.110811     0.827984  Biso 1.000000     C
    C   1.0     0.089299     0.610799     0.828096  Biso 1.000000     C
    C   1.0     0.589719     0.110812     0.827984  Biso 1.000000     C
    C   1.0     0.589289     0.610800     0.828097  Biso 1.000000     C
    C   1.0     0.126202     0.246670     0.765540  Biso 1.000000     C
    C   1.0     0.125989     0.746611     0.765564  Biso 1.000000     C
    C   1.0     0.626192     0.246670     0.765540  Biso 1.000000     C
    C   1.0     0.625979     0.746611     0.765565  Biso 1.000000     C
    C   1.0     0.364191     0.140383     0.345348  Biso 1.000000     C
    C   1.0     0.363891     0.640320     0.345460  Biso 1.000000     C
    C   1.0     0.864180     0.140382     0.345349  Biso 1.000000     C
    C   1.0     0.863880     0.640321     0.345461  Biso 1.000000     C
    C   1.0     0.393585     0.153268     0.410315  Biso 1.000000     C
    C   1.0     0.393227     0.653232     0.410428  Biso 1.000000     C
    C   1.0     0.893575     0.153268     0.410315  Biso 1.000000     C
    C   1.0     0.893215     0.653232     0.410428  Biso 1.000000     C
    C   1.0     0.003799     0.138801     0.431498  Biso 1.000000     C
    C   1.0     0.003435     0.638759     0.431609  Biso 1.000000     C
    C   1.0     0.503789     0.138802     0.431498  Biso 1.000000     C
    C   1.0     0.503425     0.638761     0.431608  Biso 1.000000     C
    C   1.0     0.029451     0.151048     0.491885  Biso 1.000000     C
    C   1.0     0.029118     0.651039     0.491985  Biso 1.000000     C
    C   1.0     0.529441     0.151050     0.491885  Biso 1.000000     C
    C   1.0     0.529108     0.651041     0.491985  Biso 1.000000     C
    C   1.0     0.444985     0.178498     0.530926  Biso 1.000000     C
    C   1.0     0.444677     0.678522     0.531014  Biso 1.000000     C
    C   1.0     0.944975     0.178498     0.530926  Biso 1.000000     C
    C   1.0     0.944666     0.678523     0.531014  Biso 1.000000     C
    C   1.0     0.333936     0.192226     0.510659  Biso 1.000000     C
    C   1.0     0.333617     0.692245     0.510757  Biso 1.000000     C
    C   1.0     0.833926     0.192228     0.510659  Biso 1.000000     C
    C   1.0     0.833608     0.692247     0.510756  Biso 1.000000     C
    C   1.0     0.309090     0.179343     0.450301  Biso 1.000000     C
    C   1.0     0.308743     0.679334     0.450403  Biso 1.000000     C
    C   1.0     0.809080     0.179345     0.450301  Biso 1.000000     C
    C   1.0     0.808733     0.679335     0.450402  Biso 1.000000     C
    C   1.0     0.447250     0.140630     0.642263  Biso 1.000000     C
    C   1.0     0.446998     0.640659     0.642310  Biso 1.000000     C
    C   1.0     0.947239     0.140630     0.642264  Biso 1.000000     C
    C   1.0     0.946987     0.640659     0.642310  Biso 1.000000     C
    C   1.0     0.031538     0.098165     0.641206  Biso 1.000000     C
    C   1.0     0.031257     0.598180     0.641225  Biso 1.000000     C
    C   1.0     0.531527     0.098166     0.641207  Biso 1.000000     C
    C   1.0     0.531245     0.598180     0.641226  Biso 1.000000     C
    C   1.0     0.008248     0.053688     0.671016  Biso 1.000000     C
    C   1.0     0.007937     0.553694     0.671016  Biso 1.000000     C
    C   1.0     0.508237     0.053688     0.671017  Biso 1.000000     C
    C   1.0     0.507925     0.553694     0.671016  Biso 1.000000     C
    C   1.0     0.400320     0.050623     0.700590  Biso 1.000000     C
    C   1.0     0.400010     0.550643     0.700590  Biso 1.000000     C
    C   1.0     0.900308     0.050623     0.700589  Biso 1.000000     C
    C   1.0     0.899999     0.550643     0.700590  Biso 1.000000     C
    C   1.0     0.316239     0.093008     0.700140  Biso 1.000000     C
    C   1.0     0.315942     0.593035     0.700152  Biso 1.000000     C
    C   1.0     0.816229     0.093009     0.700140  Biso 1.000000     C
    C   1.0     0.815931     0.593035     0.700153  Biso 1.000000     C
    C   1.0     0.339210     0.138575     0.671637  Biso 1.000000     C
    C   1.0     0.338943     0.638608     0.671669  Biso 1.000000     C
    C   1.0     0.839200     0.138575     0.671638  Biso 1.000000     C
    C   1.0     0.838933     0.638609     0.671670  Biso 1.000000     C
    C   1.0     0.376748     0.002856     0.734333  Biso 1.000000     C
    C   1.0     0.376402     0.502889     0.734336  Biso 1.000000     C
    C   1.0     0.876736     0.002856     0.734334  Biso 1.000000     C
    C   1.0     0.876391     0.502889     0.734336  Biso 1.000000     C
    C   1.0     0.386185     0.389970     0.845612  Biso 1.000000     C
    C   1.0     0.386240     0.889964     0.845823  Biso 1.000000     C
    C   1.0     0.886175     0.389971     0.845612  Biso 1.000000     C
    C   1.0     0.886229     0.889964     0.845823  Biso 1.000000     C
    C   1.0     0.356827     0.403006     0.910573  Biso 1.000000     C
    C   1.0     0.356730     0.903020     0.910776  Biso 1.000000     C
    C   1.0     0.856818     0.403005     0.910573  Biso 1.000000     C
    C   1.0     0.856720     0.903020     0.910776  Biso 1.000000     C
    C   1.0     0.246624     0.388556     0.931784  Biso 1.000000     C
    C   1.0     0.246467     0.888570     0.931926  Biso 1.000000     C
    C   1.0     0.746615     0.388555     0.931784  Biso 1.000000     C
    C   1.0     0.746458     0.888569     0.931926  Biso 1.000000     C
    C   1.0     0.220808     0.401004     0.992138  Biso 1.000000     C
    C   1.0     0.220509     0.901013     0.992266  Biso 1.000000     C
    C   1.0     0.720798     0.401004     0.992138  Biso 1.000000     C
    C   1.0     0.720500     0.901012     0.992266  Biso 1.000000     C
    C   1.0     0.305141     0.428635     0.031096  Biso 1.000000     C
    C   1.0     0.304763     0.928642     0.031272  Biso 1.000000     C
    C   1.0     0.805132     0.428635     0.031096  Biso 1.000000     C
    C   1.0     0.804753     0.928642     0.031272  Biso 1.000000     C
    C   1.0     0.416218     0.442329     0.010818  Biso 1.000000     C
    C   1.0     0.415876     0.942355     0.011059  Biso 1.000000     C
    C   1.0     0.916209     0.442329     0.010818  Biso 1.000000     C
    C   1.0     0.915866     0.942356     0.011058  Biso 1.000000     C
    C   1.0     0.441213     0.429245     0.950499  Biso 1.000000     C
    C   1.0     0.441012     0.929272     0.950754  Biso 1.000000     C
    C   1.0     0.941204     0.429245     0.950499  Biso 1.000000     C
    C   1.0     0.941002     0.929273     0.950754  Biso 1.000000     C
    C   1.0     0.302809     0.391150     0.142554  Biso 1.000000     C
    C   1.0     0.302267     0.891099     0.142683  Biso 1.000000     C
    C   1.0     0.802800     0.391150     0.142554  Biso 1.000000     C
    C   1.0     0.802258     0.891099     0.142683  Biso 1.000000     C
    C   1.0     0.218644     0.348658     0.141579  Biso 1.000000     C
    C   1.0     0.218142     0.848585     0.141680  Biso 1.000000     C
    C   1.0     0.718635     0.348658     0.141579  Biso 1.000000     C
    C   1.0     0.718133     0.848585     0.141679  Biso 1.000000     C
    C   1.0     0.242126     0.304216     0.171399  Biso 1.000000     C
    C   1.0     0.241701     0.804114     0.171450  Biso 1.000000     C
    C   1.0     0.742118     0.304216     0.171398  Biso 1.000000     C
    C   1.0     0.741692     0.804114     0.171449  Biso 1.000000     C
    C   1.0     0.350136     0.301236     0.200881  Biso 1.000000     C
    C   1.0     0.349745     0.801128     0.200906  Biso 1.000000     C
    C   1.0     0.850126     0.301236     0.200881  Biso 1.000000     C
    C   1.0     0.849735     0.801128     0.200906  Biso 1.000000     C
    C   1.0     0.434035     0.343698     0.200428  Biso 1.000000     C
    C   1.0     0.433593     0.843614     0.200480  Biso 1.000000     C
    C   1.0     0.934025     0.343698     0.200429  Biso 1.000000     C
    C   1.0     0.933583     0.843614     0.200481  Biso 1.000000     C
    C   1.0     0.410882     0.389222     0.171904  Biso 1.000000     C
    C   1.0     0.410361     0.889164     0.172012  Biso 1.000000     C
    C   1.0     0.910872     0.389222     0.171905  Biso 1.000000     C
    C   1.0     0.910352     0.889164     0.172012  Biso 1.000000     C
    C   1.0     0.374155     0.253418     0.234452  Biso 1.000000     C
    C   1.0     0.373838     0.753306     0.234462  Biso 1.000000     C
    C   1.0     0.874145     0.253417     0.234452  Biso 1.000000     C
    C   1.0     0.873828     0.753306     0.234462  Biso 1.000000     C
    C   1.0     0.136178     0.359662     0.654558  Biso 1.000000     C
    C   1.0     0.135946     0.859616     0.654630  Biso 1.000000     C
    C   1.0     0.636167     0.359662     0.654558  Biso 1.000000     C
    C   1.0     0.635935     0.859617     0.654630  Biso 1.000000     C
    C   1.0     0.106884     0.346748     0.589588  Biso 1.000000     C
    C   1.0     0.106586     0.846724     0.589661  Biso 1.000000     C
    C   1.0     0.606873     0.346747     0.589588  Biso 1.000000     C
    C   1.0     0.606574     0.846724     0.589661  Biso 1.000000     C
    C   1.0     0.496685     0.361219     0.568398  Biso 1.000000     C
    C   1.0     0.496372     0.861191     0.568480  Biso 1.000000     C
    C   1.0     0.996674     0.361221     0.568398  Biso 1.000000     C
    C   1.0     0.996361     0.861192     0.568480  Biso 1.000000     C
    C   1.0     0.471025     0.348942     0.508020  Biso 1.000000     C
    C   1.0     0.470711     0.848939     0.508096  Biso 1.000000     C
    C   1.0     0.971014     0.348944     0.508020  Biso 1.000000     C
    C   1.0     0.970700     0.848941     0.508096  Biso 1.000000     C
    C   1.0     0.055481     0.321463     0.468998  Biso 1.000000     C
    C   1.0     0.055171     0.821487     0.469055  Biso 1.000000     C
    C   1.0     0.555471     0.321463     0.468998  Biso 1.000000     C
    C   1.0     0.555160     0.821487     0.469055  Biso 1.000000     C
    C   1.0     0.166532     0.307738     0.489265  Biso 1.000000     C
    C   1.0     0.166222     0.807756     0.489318  Biso 1.000000     C
    C   1.0     0.666523     0.307739     0.489264  Biso 1.000000     C
    C   1.0     0.666212     0.807758     0.489318  Biso 1.000000     C
    C   1.0     0.191383     0.320646     0.549622  Biso 1.000000     C
    C   1.0     0.191077     0.820643     0.549677  Biso 1.000000     C
    C   1.0     0.691373     0.320647     0.549621  Biso 1.000000     C
    C   1.0     0.691068     0.820645     0.549676  Biso 1.000000     C
    C   1.0     0.053176     0.359342     0.357711  Biso 1.000000     C
    C   1.0     0.052849     0.859360     0.357723  Biso 1.000000     C
    C   1.0     0.553165     0.359342     0.357710  Biso 1.000000     C
    C   1.0     0.552838     0.859360     0.357723  Biso 1.000000     C
    C   1.0     0.468912     0.401818     0.358796  Biso 1.000000     C
    C   1.0     0.468551     0.901820     0.358786  Biso 1.000000     C
    C   1.0     0.968901     0.401818     0.358797  Biso 1.000000     C
    C   1.0     0.968539     0.901820     0.358787  Biso 1.000000     C
    C   1.0     0.492220     0.446303     0.329003  Biso 1.000000     C
    C   1.0     0.491821     0.946299     0.328976  Biso 1.000000     C
    C   1.0     0.992209     0.446303     0.329004  Biso 1.000000     C
    C   1.0     0.991810     0.946299     0.328976  Biso 1.000000     C
    C   1.0     0.100141     0.449357     0.299427  Biso 1.000000     C
    C   1.0     0.099743     0.949372     0.299400  Biso 1.000000     C
    C   1.0     0.600130     0.449357     0.299427  Biso 1.000000     C
    C   1.0     0.599732     0.949372     0.299400  Biso 1.000000     C
    C   1.0     0.184221     0.406970     0.299867  Biso 1.000000     C
    C   1.0     0.183835     0.906991     0.299843  Biso 1.000000     C
    C   1.0     0.684210     0.406970     0.299866  Biso 1.000000     C
    C   1.0     0.683825     0.906991     0.299843  Biso 1.000000     C
    C   1.0     0.161233     0.361397     0.328353  Biso 1.000000     C
    C   1.0     0.160883     0.861422     0.328346  Biso 1.000000     C
    C   1.0     0.661223     0.361398     0.328353  Biso 1.000000     C
    C   1.0     0.660872     0.861422     0.328346  Biso 1.000000     C
    C   1.0     0.123723     0.497106     0.265673  Biso 1.000000     C
    C   1.0     0.123288     0.997144     0.265658  Biso 1.000000     C
    C   1.0     0.623712     0.497105     0.265670  Biso 1.000000     C
    C   1.0     0.623276     0.997143     0.265657  Biso 1.000000     C
    O   1.0     0.199433     0.119255     0.191272  Biso 1.000000     O
    O   1.0     0.199623     0.619124     0.191496  Biso 1.000000     O
    O   1.0     0.699423     0.119256     0.191272  Biso 1.000000     O
    O   1.0     0.699612     0.619125     0.191496  Biso 1.000000     O
    O   1.0     0.005869     0.113629     0.169292  Biso 1.000000     O
    O   1.0     0.006040     0.613729     0.169595  Biso 1.000000     O
    O   1.0     0.505859     0.113629     0.169292  Biso 1.000000     O
    O   1.0     0.506030     0.613728     0.169595  Biso 1.000000     O
    O   1.0     0.018310     0.258242     0.757678  Biso 1.000000     O
    O   1.0     0.018105     0.758190     0.757690  Biso 1.000000     O
    O   1.0     0.518299     0.258243     0.757679  Biso 1.000000     O
    O   1.0     0.518094     0.758189     0.757690  Biso 1.000000     O
    O   1.0     0.154764     0.004454     0.869134  Biso 1.000000     O
    O   1.0     0.154415     0.504434     0.869355  Biso 1.000000     O
    O   1.0     0.654753     0.004454     0.869134  Biso 1.000000     O
    O   1.0     0.654405     0.504434     0.869356  Biso 1.000000     O
    O   1.0     0.215338     0.270693     0.747481  Biso 1.000000     O
    O   1.0     0.215154     0.770633     0.747523  Biso 1.000000     O
    O   1.0     0.715328     0.270694     0.747481  Biso 1.000000     O
    O   1.0     0.715143     0.770633     0.747523  Biso 1.000000     O
    O   1.0     0.361592     0.043731     0.889711  Biso 1.000000     O
    O   1.0     0.361173     0.543769     0.889849  Biso 1.000000     O
    O   1.0     0.861583     0.043731     0.889711  Biso 1.000000     O
    O   1.0     0.861163     0.543768     0.889849  Biso 1.000000     O
    O   1.0     0.449800     0.131585     0.308153  Biso 1.000000     O
    O   1.0     0.449588     0.631466     0.308314  Biso 1.000000     O
    O   1.0     0.949789     0.131585     0.308153  Biso 1.000000     O
    O   1.0     0.949577     0.631465     0.308314  Biso 1.000000     O
    O   1.0     0.256264     0.136483     0.330216  Biso 1.000000     O
    O   1.0     0.255999     0.636466     0.330287  Biso 1.000000     O
    O   1.0     0.756252     0.136484     0.330216  Biso 1.000000     O
    O   1.0     0.755987     0.636466     0.330287  Biso 1.000000     O
    O   1.0     0.268682     0.491093     0.742293  Biso 1.000000     O
    O   1.0     0.269039     0.991014     0.742295  Biso 1.000000     O
    O   1.0     0.768671     0.491093     0.742293  Biso 1.000000     O
    O   1.0     0.769027     0.991014     0.742295  Biso 1.000000     O
    O   1.0     0.404037     0.245149     0.630672  Biso 1.000000     O
    O   1.0     0.403828     0.745180     0.630764  Biso 1.000000     O
    O   1.0     0.904027     0.245149     0.630672  Biso 1.000000     O
    O   1.0     0.903817     0.745180     0.630764  Biso 1.000000     O
    O   1.0     0.465842     0.479169     0.752493  Biso 1.000000     O
    O   1.0     0.466218     0.979159     0.752486  Biso 1.000000     O
    O   1.0     0.965831     0.479169     0.752493  Biso 1.000000     O
    O   1.0     0.966207     0.979159     0.752486  Biso 1.000000     O
    O   1.0     0.110913     0.206020     0.610129  Biso 1.000000     O
    O   1.0     0.110683     0.706031     0.610156  Biso 1.000000     O
    O   1.0     0.610901     0.206020     0.610129  Biso 1.000000     O
    O   1.0     0.610671     0.706031     0.610156  Biso 1.000000     O
    O   1.0     0.300473     0.380866     0.808516  Biso 1.000000     O
    O   1.0     0.300553     0.880773     0.808709  Biso 1.000000     O
    O   1.0     0.800462     0.380868     0.808516  Biso 1.000000     O
    O   1.0     0.800543     0.880773     0.808709  Biso 1.000000     O
    O   1.0     0.494068     0.386270     0.830395  Biso 1.000000     O
    O   1.0     0.494132     0.886352     0.830636  Biso 1.000000     O
    O   1.0     0.994057     0.386269     0.830395  Biso 1.000000     O
    O   1.0     0.994122     0.886353     0.830636  Biso 1.000000     O
    O   1.0     0.482039     0.241853     0.242350  Biso 1.000000     O
    O   1.0     0.481720     0.741716     0.242323  Biso 1.000000     O
    O   1.0     0.982029     0.241853     0.242350  Biso 1.000000     O
    O   1.0     0.981709     0.741715     0.242323  Biso 1.000000     O
    O   1.0     0.345680     0.495591     0.130652  Biso 1.000000     O
    O   1.0     0.345303     0.995531     0.130840  Biso 1.000000     O
    O   1.0     0.845670     0.495591     0.130652  Biso 1.000000     O
    O   1.0     0.845293     0.995531     0.130841  Biso 1.000000     O
    O   1.0     0.284972     0.229391     0.252475  Biso 1.000000     O
    O   1.0     0.284679     0.729301     0.252526  Biso 1.000000     O
    O   1.0     0.784961     0.229391     0.252475  Biso 1.000000     O
    O   1.0     0.784668     0.729302     0.252526  Biso 1.000000     O
    O   1.0     0.138962     0.456217     0.110149  Biso 1.000000     O
    O   1.0     0.138503     0.956235     0.110268  Biso 1.000000     O
    O   1.0     0.638952     0.456216     0.110149  Biso 1.000000     O
    O   1.0     0.638494     0.956235     0.110268  Biso 1.000000     O
    O   1.0     0.050460     0.368518     0.691691  Biso 1.000000     O
    O   1.0     0.050300     0.868429     0.691805  Biso 1.000000     O
    O   1.0     0.550449     0.368517     0.691691  Biso 1.000000     O
    O   1.0     0.550289     0.868429     0.691805  Biso 1.000000     O
    O   1.0     0.244064     0.363524     0.669746  Biso 1.000000     O
    O   1.0     0.243860     0.863508     0.669785  Biso 1.000000     O
    O   1.0     0.744052     0.363524     0.669746  Biso 1.000000     O
    O   1.0     0.743848     0.863508     0.669785  Biso 1.000000     O
    O   1.0     0.230990     0.008995     0.257695  Biso 1.000000     O
    O   1.0     0.231441     0.508905     0.257713  Biso 1.000000     O
    O   1.0     0.730979     0.008995     0.257696  Biso 1.000000     O
    O   1.0     0.731430     0.508906     0.257714  Biso 1.000000     O
    O   1.0     0.096351     0.254822     0.369239  Biso 1.000000     O
    O   1.0     0.096071     0.754841     0.369299  Biso 1.000000     O
    O   1.0     0.596341     0.254822     0.369239  Biso 1.000000     O
    O   1.0     0.596060     0.754841     0.369299  Biso 1.000000     O
    O   1.0     0.033803     0.020837     0.247513  Biso 1.000000     O
    O   1.0     0.034270     0.520820     0.247518  Biso 1.000000     O
    O   1.0     0.533792     0.020837     0.247514  Biso 1.000000     O
    O   1.0     0.534259     0.520821     0.247519  Biso 1.000000     O
    O   1.0     0.389483     0.293962     0.389857  Biso 1.000000     O
    O   1.0     0.389205     0.793969     0.389878  Biso 1.000000     O
    O   1.0     0.889471     0.293961     0.389857  Biso 1.000000     O
    O   1.0     0.889192     0.793969     0.389878  Biso 1.000000     O
    S   1.0     0.233696     0.051052     0.892632  Biso 1.000000     S
    S   1.0     0.233276     0.551070     0.892813  Biso 1.000000     S
    S   1.0     0.733686     0.051052     0.892632  Biso 1.000000     S
    S   1.0     0.733266     0.551070     0.892813  Biso 1.000000     S
    S   1.0     0.483039     0.198597     0.607087  Biso 1.000000     S
    S   1.0     0.482802     0.698627     0.607152  Biso 1.000000     S
    S   1.0     0.983029     0.198597     0.607087  Biso 1.000000     S
    S   1.0     0.982791     0.698627     0.607152  Biso 1.000000     S
    S   1.0     0.266865     0.448940     0.107187  Biso 1.000000     S
    S   1.0     0.266400     0.948921     0.107347  Biso 1.000000     S
    S   1.0     0.766856     0.448940     0.107187  Biso 1.000000     S
    S   1.0     0.766391     0.948921     0.107347  Biso 1.000000     S
    S   1.0     0.017366     0.301369     0.392859  Biso 1.000000     S
    S   1.0     0.017079     0.801391     0.392900  Biso 1.000000     S
    S   1.0     0.517355     0.301368     0.392859  Biso 1.000000     S
    S   1.0     0.517068     0.801391     0.392900  Biso 1.000000     S
   Ca   1.0     0.132797     0.432474     0.777413  Biso 1.000000    Ca
   Ca   1.0     0.132987     0.932407     0.777456  Biso 1.000000    Ca
   Ca   1.0     0.632785     0.432474     0.777413  Biso 1.000000    Ca
   Ca   1.0     0.632976     0.932407     0.777456  Biso 1.000000    Ca
   Ca   1.0     0.382650     0.317064     0.722651  Biso 1.000000    Ca
   Ca   1.0     0.382431     0.817030     0.722726  Biso 1.000000    Ca
   Ca   1.0     0.882639     0.317065     0.722651  Biso 1.000000    Ca
   Ca   1.0     0.882419     0.817031     0.722726  Biso 1.000000    Ca
   Ca   1.0     0.367053     0.067597     0.222520  Biso 1.000000    Ca
   Ca   1.0     0.367324     0.567520     0.222586  Biso 1.000000    Ca
   Ca   1.0     0.867042     0.067597     0.222520  Biso 1.000000    Ca
   Ca   1.0     0.867312     0.567520     0.222586  Biso 1.000000    Ca
   Ca   1.0     0.117717     0.182993     0.277284  Biso 1.000000    Ca
   Ca   1.0     0.117415     0.682912     0.277358  Biso 1.000000    Ca
   Ca   1.0     0.617705     0.182994     0.277283  Biso 1.000000    Ca
   Ca   1.0     0.617404     0.682913     0.277358  Biso 1.000000    Ca
