#======================================================================

# CRYSTAL DATA

#----------------------------------------------------------------------

data_VESTA_phase_1


_pd_phase_name                         MOF
_cell_length_a                         19.91400
_cell_length_b                         13.31200
_cell_length_c                         21.43600
_cell_angle_alpha                      101.25600
_cell_angle_beta                       103.13700
_cell_angle_gamma                      99.58000
_symmetry_space_group_name_H-M         "P 1"
_symmetry_Int_Tables_number            1

loop_
_symmetry_equiv_pos_as_xyz
   "x, y, z"

loop_
   _atom_site_label
   _atom_site_occupancy
   _atom_site_fract_x
   _atom_site_fract_y
   _atom_site_fract_z
   _atom_site_adp_type
   _atom_site_B_iso_or_equiv
   _atom_site_type_symbol
    H   1.0     0.260183     0.728697     0.172171  Biso 1.000000     H
    H   1.0     0.760183     0.728698     0.172173  Biso 1.000000     H
    H   1.0     0.371779     0.713608     0.248601  Biso 1.000000     H
    H   1.0     0.871780     0.713612     0.248602  Biso 1.000000     H
    H   1.0     0.232388     0.964724     0.325465  Biso 1.000000     H
    H   1.0     0.732386     0.964722     0.325468  Biso 1.000000     H
    H   1.0     0.382328     0.679642     0.129095  Biso 1.000000     H
    H   1.0     0.882331     0.679642     0.129095  Biso 1.000000     H
    H   1.0     0.086225     0.619157     0.165569  Biso 1.000000     H
    H   1.0     0.586230     0.619157     0.165568  Biso 1.000000     H
    H   1.0     0.033355     0.411070     0.174405  Biso 1.000000     H
    H   1.0     0.533363     0.411073     0.174404  Biso 1.000000     H
    H   1.0     0.050835     0.493112     0.253313  Biso 1.000000     H
    H   1.0     0.550843     0.493116     0.253312  Biso 1.000000     H
    H   1.0     0.503174     0.565052     0.312835  Biso 1.000000     H
    H   1.0     0.000000     0.565052     0.312835  Biso 1.000000     H
    H   1.0     0.421178     0.568666     0.329139  Biso 1.000000     H
    H   1.0     0.921176     0.568665     0.329138  Biso 1.000000     H
    H   1.0     0.481820     0.512173     0.377310  Biso 1.000000     H
    H   1.0     0.981819     0.512174     0.377310  Biso 1.000000     H
    H   1.0     0.483888     0.225985     0.118186  Biso 1.000000     H
    H   1.0     0.983887     0.225983     0.118184  Biso 1.000000     H
    H   1.0     0.394977     0.201808     0.073277  Biso 1.000000     H
    H   1.0     0.894976     0.201809     0.073277  Biso 1.000000     H
    H   1.0     0.447562     0.329076     0.093294  Biso 1.000000     H
    H   1.0     0.947561     0.329075     0.093294  Biso 1.000000     H
    H   1.0     0.273035     0.195842     0.308176  Biso 1.000000     H
    H   1.0     0.773034     0.195843     0.308175  Biso 1.000000     H
    H   1.0     0.251029     0.118729     0.227300  Biso 1.000000     H
    H   1.0     0.751027     0.118730     0.227300  Biso 1.000000     H
    H   1.0     0.322132     0.101200     0.286705  Biso 1.000000     H
    H   1.0     0.822129     0.101200     0.286705  Biso 1.000000     H
    H   1.0     0.298247     0.344837     0.350012  Biso 1.000000     H
    H   1.0     0.798246     0.344836     0.350012  Biso 1.000000     H
    H   1.0     0.365933     0.459558     0.374073  Biso 1.000000     H
    H   1.0     0.865931     0.459558     0.374074  Biso 1.000000     H
    H   1.0     0.307831     0.233015     0.432129  Biso 1.000000     H
    H   1.0     0.807831     0.233017     0.432131  Biso 1.000000     H
    H   1.0     0.027791     0.311973     0.514265  Biso 1.000000     H
    H   1.0     0.527800     0.311974     0.514267  Biso 1.000000     H
    H   1.0     0.329471     0.102464     0.096838  Biso 1.000000     H
    H   1.0     0.829469     0.102463     0.096838  Biso 1.000000     H
    H   1.0     0.292126     0.062935     0.157531  Biso 1.000000     H
    H   1.0     0.792125     0.062934     0.157532  Biso 1.000000     H
    H   1.0     0.415855     0.996020     0.066275  Biso 1.000000     H
    H   1.0     0.915854     0.996020     0.066274  Biso 1.000000     H
    H   1.0     0.482518     0.914592     0.247888  Biso 1.000000     H
    H   1.0     0.982516     0.914592     0.247888  Biso 1.000000     H
    H   1.0     0.463368     0.584577     0.996395  Biso 1.000000     H
    H   1.0     0.963366     0.584578     0.996395  Biso 1.000000     H
    H   1.0     0.424910     0.873609     0.961754  Biso 1.000000     H
    H   1.0     0.924910     0.873610     0.961754  Biso 1.000000     H
    H   1.0     0.276490     0.689445     0.857024  Biso 1.000000     H
    H   1.0     0.776489     0.689445     0.857025  Biso 1.000000     H
    H   1.0     0.331696     0.806651     0.855727  Biso 1.000000     H
    H   1.0     0.831694     0.806651     0.855726  Biso 1.000000     H
    H   1.0     0.262427     0.420387     0.780088  Biso 1.000000     H
    H   1.0     0.762425     0.420388     0.780089  Biso 1.000000     H
    H   1.0     0.276067     0.532598     0.843151  Biso 1.000000     H
    H   1.0     0.776063     0.532599     0.843151  Biso 1.000000     H
    H   1.0     0.199594     0.500662     0.775477  Biso 1.000000     H
    H   1.0     0.699592     0.500661     0.775476  Biso 1.000000     H
    H   1.0     0.387629     0.893428     0.759506  Biso 1.000000     H
    H   1.0     0.887627     0.893428     0.759506  Biso 1.000000     H
    H   1.0     0.421620     0.861536     0.834515  Biso 1.000000     H
    H   1.0     0.921618     0.861536     0.834515  Biso 1.000000     H
    H   1.0     0.467678     0.850539     0.773311  Biso 1.000000     H
    H   1.0     0.967677     0.850539     0.773311  Biso 1.000000     H
    H   1.0     0.386142     0.496128     0.582921  Biso 1.000000     H
    H   1.0     0.886140     0.496127     0.582920  Biso 1.000000     H
    H   1.0     0.292883     0.461669     0.559580  Biso 1.000000     H
    H   1.0     0.792880     0.461668     0.559580  Biso 1.000000     H
    H   1.0     0.336706     0.585357     0.554825  Biso 1.000000     H
    H   1.0     0.836703     0.585356     0.554824  Biso 1.000000     H
    H   1.0     0.224369     0.399375     0.605349  Biso 1.000000     H
    H   1.0     0.724367     0.399373     0.605349  Biso 1.000000     H
    H   1.0     0.221104     0.378086     0.682696  Biso 1.000000     H
    H   1.0     0.721102     0.378085     0.682696  Biso 1.000000     H
    H   1.0     0.256194     0.230063     0.551321  Biso 1.000000     H
    H   1.0     0.756193     0.230063     0.551321  Biso 1.000000     H
    H   1.0     0.435760     0.239565     0.701485  Biso 1.000000     H
    H   1.0     0.935759     0.239565     0.701486  Biso 1.000000     H
    H   1.0     0.437300     0.678951     0.613729  Biso 1.000000     H
    H   1.0     0.937297     0.678951     0.613728  Biso 1.000000     H
    H   1.0     0.477521     0.772813     0.688331  Biso 1.000000     H
    H   1.0     0.977518     0.772811     0.688330  Biso 1.000000     H
    H   1.0     0.492799     0.922920     0.622792  Biso 1.000000     H
    H   1.0     0.992797     0.922921     0.622794  Biso 1.000000     H
    H   1.0     0.276653     0.923266     0.563266  Biso 1.000000     H
    H   1.0     0.776651     0.923268     0.563266  Biso 1.000000     H
    H   1.0     0.239804     0.271297     0.827863  Biso 1.000000     H
    H   1.0     0.739804     0.271298     0.827864  Biso 1.000000     H
    H   1.0     0.128204     0.286386     0.751438  Biso 1.000000     H
    H   1.0     0.628202     0.286383     0.751440  Biso 1.000000     H
    H   1.0     0.267591     0.035269     0.674565  Biso 1.000000     H
    H   1.0     0.767591     0.035269     0.674566  Biso 1.000000     H
    H   1.0     0.117648     0.320352     0.870941  Biso 1.000000     H
    H   1.0     0.617651     0.320354     0.870942  Biso 1.000000     H
    H   1.0     0.413749     0.380836     0.834464  Biso 1.000000     H
    H   1.0     0.913754     0.380837     0.834464  Biso 1.000000     H
    H   1.0     0.466618     0.588922     0.825631  Biso 1.000000     H
    H   1.0     0.966626     0.588926     0.825630  Biso 1.000000     H
    H   1.0     0.449138     0.506881     0.746723  Biso 1.000000     H
    H   1.0     0.949146     0.506883     0.746722  Biso 1.000000     H
    H   1.0    -0.003191     0.434943     0.687200  Biso 1.000000     H
    H   1.0     0.496807     0.434944     0.687200  Biso 1.000000     H
    H   1.0     0.078804     0.431330     0.670896  Biso 1.000000     H
    H   1.0     0.578803     0.431329     0.670895  Biso 1.000000     H
    H   1.0     0.018161     0.487823     0.622726  Biso 1.000000     H
    H   1.0     0.518160     0.487825     0.622726  Biso 1.000000     H
    H   1.0     0.016096     0.774015     0.881852  Biso 1.000000     H
    H   1.0     0.516095     0.774014     0.881851  Biso 1.000000     H
    H   1.0     0.105007     0.798183     0.926759  Biso 1.000000     H
    H   1.0     0.605007     0.798184     0.926759  Biso 1.000000     H
    H   1.0     0.052419     0.670919     0.906741  Biso 1.000000     H
    H   1.0     0.552419     0.670919     0.906741  Biso 1.000000     H
    H   1.0     0.226950     0.804150     0.691862  Biso 1.000000     H
    H   1.0     0.726948     0.804151     0.691862  Biso 1.000000     H
    H   1.0     0.248955     0.881266     0.772737  Biso 1.000000     H
    H   1.0     0.748953     0.881268     0.772736  Biso 1.000000     H
    H   1.0     0.177853     0.898793     0.713330  Biso 1.000000     H
    H   1.0     0.677850     0.898793     0.713329  Biso 1.000000     H
    H   1.0     0.201736     0.655158     0.650024  Biso 1.000000     H
    H   1.0     0.701736     0.655157     0.650024  Biso 1.000000     H
    H   1.0     0.134050     0.540438     0.625962  Biso 1.000000     H
    H   1.0     0.634049     0.540438     0.625962  Biso 1.000000     H
    H   1.0     0.192152     0.766980     0.567907  Biso 1.000000     H
    H   1.0     0.692152     0.766982     0.567908  Biso 1.000000     H
    H   1.0     0.472183     0.688023     0.485770  Biso 1.000000     H
    H   1.0     0.972191     0.688024     0.485772  Biso 1.000000     H
    H   1.0     0.170513     0.897532     0.903199  Biso 1.000000     H
    H   1.0     0.670511     0.897532     0.903198  Biso 1.000000     H
    H   1.0     0.207858     0.937060     0.842505  Biso 1.000000     H
    H   1.0     0.707857     0.937060     0.842505  Biso 1.000000     H
    H   1.0     0.084127     0.003973     0.933761  Biso 1.000000     H
    H   1.0     0.584126     0.003974     0.933761  Biso 1.000000     H
    H   1.0     0.017467     0.085404     0.752147  Biso 1.000000     H
    H   1.0     0.517466     0.085404     0.752147  Biso 1.000000     H
    H   1.0     0.036616     0.415416     0.003638  Biso 1.000000     H
    H   1.0     0.536615     0.415417     0.003638  Biso 1.000000     H
    H   1.0     0.075075     0.126386     0.038282  Biso 1.000000     H
    H   1.0     0.575074     0.126388     0.038282  Biso 1.000000     H
    H   1.0     0.223497     0.310554     0.143013  Biso 1.000000     H
    H   1.0     0.723496     0.310555     0.143013  Biso 1.000000     H
    H   1.0     0.168291     0.193347     0.144309  Biso 1.000000     H
    H   1.0     0.668290     0.193348     0.144309  Biso 1.000000     H
    H   1.0     0.237560     0.579611     0.219949  Biso 1.000000     H
    H   1.0     0.737559     0.579612     0.219950  Biso 1.000000     H
    H   1.0     0.223916     0.467401     0.156884  Biso 1.000000     H
    H   1.0     0.723913     0.467403     0.156884  Biso 1.000000     H
    H   1.0     0.300389     0.499331     0.224557  Biso 1.000000     H
    H   1.0     0.800387     0.499331     0.224556  Biso 1.000000     H
    H   1.0     0.112354     0.106570     0.240530  Biso 1.000000     H
    H   1.0     0.612352     0.106571     0.240530  Biso 1.000000     H
    H   1.0     0.078367     0.138459     0.165519  Biso 1.000000     H
    H   1.0     0.578366     0.138459     0.165519  Biso 1.000000     H
    H   1.0     0.032304     0.149458     0.226720  Biso 1.000000     H
    H   1.0     0.532302     0.149459     0.226719  Biso 1.000000     H
    H   1.0     0.113837     0.503867     0.417113  Biso 1.000000     H
    H   1.0     0.613835     0.503866     0.417113  Biso 1.000000     H
    H   1.0     0.207097     0.538328     0.440454  Biso 1.000000     H
    H   1.0     0.707094     0.538328     0.440454  Biso 1.000000     H
    H   1.0     0.163275     0.414639     0.445209  Biso 1.000000     H
    H   1.0     0.663273     0.414638     0.445209  Biso 1.000000     H
    H   1.0     0.275612     0.600623     0.394687  Biso 1.000000     H
    H   1.0     0.775610     0.600622     0.394687  Biso 1.000000     H
    H   1.0     0.278880     0.621911     0.317340  Biso 1.000000     H
    H   1.0     0.778878     0.621910     0.317340  Biso 1.000000     H
    H   1.0     0.243784     0.769929     0.448716  Biso 1.000000     H
    H   1.0     0.743783     0.769929     0.448716  Biso 1.000000     H
    H   1.0     0.064223     0.760433     0.298547  Biso 1.000000     H
    H   1.0     0.564222     0.760434     0.298547  Biso 1.000000     H
    H   1.0     0.062680     0.321045     0.386304  Biso 1.000000     H
    H   1.0     0.562678     0.321044     0.386303  Biso 1.000000     H
    H   1.0     0.022461     0.227183     0.311701  Biso 1.000000     H
    H   1.0     0.522459     0.227183     0.311700  Biso 1.000000     H
    H   1.0     0.007182     0.077077     0.377239  Biso 1.000000     H
    H   1.0     0.507181     0.077077     0.377240  Biso 1.000000     H
    H   1.0     0.223328     0.076732     0.436770  Biso 1.000000     H
    H   1.0     0.723327     0.076735     0.436770  Biso 1.000000     H
    C   1.0     0.169617     0.848693     0.199389  Biso 1.000000     C
    C   1.0     0.669618     0.848694     0.199391  Biso 1.000000     C
    C   1.0     0.239033     0.846719     0.244193  Biso 1.000000     C
    C   1.0     0.739033     0.846718     0.244196  Biso 1.000000     C
    C   1.0     0.279481     0.777413     0.222503  Biso 1.000000     C
    C   1.0     0.779481     0.777412     0.222506  Biso 1.000000     C
    C   1.0     0.341596     0.769837     0.265060  Biso 1.000000     C
    C   1.0     0.841597     0.769840     0.265063  Biso 1.000000     C
    C   1.0     0.365632     0.832462     0.329765  Biso 1.000000     C
    C   1.0     0.865633     0.832465     0.329767  Biso 1.000000     C
    C   1.0     0.327111     0.906078     0.351093  Biso 1.000000     C
    C   1.0     0.827110     0.906077     0.351096  Biso 1.000000     C
    C   1.0     0.263638     0.910818     0.308454  Biso 1.000000     C
    C   1.0     0.763637     0.910818     0.308456  Biso 1.000000     C
    C   1.0     0.428627     0.812740     0.376313  Biso 1.000000     C
    C   1.0     0.928630     0.812748     0.376317  Biso 1.000000     C
    C   1.0     0.354292     0.980310     0.418463  Biso 1.000000     C
    C   1.0     0.854291     0.980312     0.418465  Biso 1.000000     C
    C   1.0     0.426635     0.643638     0.143332  Biso 1.000000     C
    C   1.0     0.926638     0.643639     0.143333  Biso 1.000000     C
    C   1.0     0.030373     0.614503     0.160880  Biso 1.000000     C
    C   1.0     0.530378     0.614505     0.160879  Biso 1.000000     C
    C   1.0     0.008619     0.455460     0.207861  Biso 1.000000     C
    C   1.0     0.508627     0.455461     0.207861  Biso 1.000000     C
    C   1.0     0.448905     0.384497     0.221342  Biso 1.000000     C
    C   1.0     0.948905     0.384499     0.221342  Biso 1.000000     C
    C   1.0     0.428476     0.413445     0.279885  Biso 1.000000     C
    C   1.0     0.928475     0.413444     0.279884  Biso 1.000000     C
    C   1.0     0.376902     0.341564     0.294270  Biso 1.000000     C
    C   1.0     0.876901     0.341563     0.294270  Biso 1.000000     C
    C   1.0     0.347362     0.240537     0.252107  Biso 1.000000     C
    C   1.0     0.847361     0.240537     0.252107  Biso 1.000000     C
    C   1.0     0.368368     0.213103     0.193429  Biso 1.000000     C
    C   1.0     0.868367     0.213103     0.193429  Biso 1.000000     C
    C   1.0     0.417128     0.285933     0.176771  Biso 1.000000     C
    C   1.0     0.917128     0.285934     0.176772  Biso 1.000000     C
    C   1.0     0.460477     0.519822     0.326914  Biso 1.000000     C
    C   1.0     0.960476     0.519821     0.326914  Biso 1.000000     C
    C   1.0     0.436537     0.259362     0.112452  Biso 1.000000     C
    C   1.0     0.936536     0.259361     0.112452  Biso 1.000000     C
    C   1.0     0.295922     0.161196     0.269634  Biso 1.000000     C
    C   1.0     0.795920     0.161197     0.269633  Biso 1.000000     C
    C   1.0     0.354945     0.373876     0.357128  Biso 1.000000     C
    C   1.0     0.854943     0.373876     0.357128  Biso 1.000000     C
    C   1.0     0.363932     0.266985     0.443661  Biso 1.000000     C
    C   1.0     0.863932     0.266986     0.443662  Biso 1.000000     C
    C   1.0     0.475885     0.310670     0.483515  Biso 1.000000     C
    C   1.0     0.975885     0.310671     0.483515  Biso 1.000000     C
    C   1.0     0.340869     0.103007     0.149398  Biso 1.000000     C
    C   1.0     0.840867     0.103006     0.149397  Biso 1.000000     C
    C   1.0     0.423190     0.987395     0.116782  Biso 1.000000     C
    C   1.0     0.923191     0.987396     0.116782  Biso 1.000000     C
    C   1.0     0.456247     0.948506     0.209589  Biso 1.000000     C
    C   1.0     0.956247     0.948507     0.209589  Biso 1.000000     C
    C   1.0     0.442479     0.642779     0.973573  Biso 1.000000     C
    C   1.0     0.942479     0.642780     0.973573  Biso 1.000000     C
    C   1.0     0.424350     0.790462     0.958269  Biso 1.000000     C
    C   1.0     0.924349     0.790463     0.958269  Biso 1.000000     C
    C   1.0     0.327876     0.722105     0.850179  Biso 1.000000     C
    C   1.0     0.827875     0.722105     0.850179  Biso 1.000000     C
    C   1.0     0.333995     0.669153     0.782964  Biso 1.000000     C
    C   1.0     0.833993     0.669153     0.782964  Biso 1.000000     C
    C   1.0     0.297101     0.564207     0.753118  Biso 1.000000     C
    C   1.0     0.797099     0.564207     0.753118  Biso 1.000000     C
    C   1.0     0.298485     0.518088     0.688316  Biso 1.000000     C
    C   1.0     0.798483     0.518088     0.688316  Biso 1.000000     C
    C   1.0     0.338075     0.574807     0.654482  Biso 1.000000     C
    C   1.0     0.838073     0.574807     0.654482  Biso 1.000000     C
    C   1.0     0.377873     0.677326     0.686509  Biso 1.000000     C
    C   1.0     0.877870     0.677325     0.686509  Biso 1.000000     C
    C   1.0     0.375058     0.725863     0.750303  Biso 1.000000     C
    C   1.0     0.875056     0.725863     0.750302  Biso 1.000000     C
    C   1.0     0.256527     0.501871     0.789690  Biso 1.000000     C
    C   1.0     0.756525     0.501871     0.789690  Biso 1.000000     C
    C   1.0     0.414737     0.837680     0.781271  Biso 1.000000     C
    C   1.0     0.914735     0.837680     0.781271  Biso 1.000000     C
    C   1.0     0.338412     0.526946     0.584572  Biso 1.000000     C
    C   1.0     0.838409     0.526945     0.584571  Biso 1.000000     C
    C   1.0     0.257297     0.406564     0.655278  Biso 1.000000     C
    C   1.0     0.757295     0.406564     0.655278  Biso 1.000000     C
    C   1.0     0.298566     0.252043     0.596650  Biso 1.000000     C
    C   1.0     0.798564     0.252042     0.596651  Biso 1.000000     C
    C   1.0     0.388510     0.258686     0.674463  Biso 1.000000     C
    C   1.0     0.888509     0.258687     0.674463  Biso 1.000000     C
    C   1.0     0.426063     0.734049     0.653104  Biso 1.000000     C
    C   1.0     0.926060     0.734048     0.653103  Biso 1.000000     C
    C   1.0     0.435616     0.901777     0.612756  Biso 1.000000     C
    C   1.0     0.935615     0.901777     0.612757  Biso 1.000000     C
    C   1.0     0.325303     0.898212     0.581402  Biso 1.000000     C
    C   1.0     0.825302     0.898214     0.581403  Biso 1.000000     C
    C   1.0     0.330364     0.151294     0.800639  Biso 1.000000     C
    C   1.0     0.830368     0.151301     0.800638  Biso 1.000000     C
    C   1.0     0.260948     0.153273     0.755838  Biso 1.000000     C
    C   1.0     0.760950     0.153277     0.755838  Biso 1.000000     C
    C   1.0     0.220501     0.222579     0.777531  Biso 1.000000     C
    C   1.0     0.720501     0.222578     0.777533  Biso 1.000000     C
    C   1.0     0.158387     0.230159     0.734975  Biso 1.000000     C
    C   1.0     0.658387     0.230158     0.734977  Biso 1.000000     C
    C   1.0     0.134348     0.167531     0.670271  Biso 1.000000     C
    C   1.0     0.634348     0.167531     0.670273  Biso 1.000000     C
    C   1.0     0.172870     0.093921     0.648939  Biso 1.000000     C
    C   1.0     0.672871     0.093923     0.648940  Biso 1.000000     C
    C   1.0     0.236340     0.089170     0.691578  Biso 1.000000     C
    C   1.0     0.736339     0.089169     0.691580  Biso 1.000000     C
    C   1.0     0.071352     0.187245     0.623719  Biso 1.000000     C
    C   1.0     0.571353     0.187241     0.623719  Biso 1.000000     C
    C   1.0     0.145686     0.019702     0.581564  Biso 1.000000     C
    C   1.0     0.645684     0.019706     0.581564  Biso 1.000000     C
    C   1.0     0.073341     0.356356     0.856703  Biso 1.000000     C
    C   1.0     0.573344     0.356356     0.856704  Biso 1.000000     C
    C   1.0     0.469601     0.385489     0.839155  Biso 1.000000     C
    C   1.0     0.969606     0.385491     0.839154  Biso 1.000000     C
    C   1.0     0.491354     0.544535     0.792174  Biso 1.000000     C
    C   1.0     0.991361     0.544535     0.792174  Biso 1.000000     C
    C   1.0     0.051077     0.615496     0.778694  Biso 1.000000     C
    C   1.0     0.551077     0.615498     0.778694  Biso 1.000000     C
    C   1.0     0.071506     0.586551     0.720151  Biso 1.000000     C
    C   1.0     0.571506     0.586550     0.720151  Biso 1.000000     C
    C   1.0     0.123081     0.658431     0.705767  Biso 1.000000     C
    C   1.0     0.623080     0.658431     0.705767  Biso 1.000000     C
    C   1.0     0.152622     0.759458     0.747929  Biso 1.000000     C
    C   1.0     0.652621     0.759458     0.747929  Biso 1.000000     C
    C   1.0     0.131615     0.786892     0.806607  Biso 1.000000     C
    C   1.0     0.631615     0.786892     0.806607  Biso 1.000000     C
    C   1.0     0.082854     0.714061     0.823264  Biso 1.000000     C
    C   1.0     0.582854     0.714062     0.823265  Biso 1.000000     C
    C   1.0     0.039505     0.480174     0.673121  Biso 1.000000     C
    C   1.0     0.539504     0.480174     0.673121  Biso 1.000000     C
    C   1.0     0.063446     0.740634     0.887584  Biso 1.000000     C
    C   1.0     0.563446     0.740634     0.887584  Biso 1.000000     C
    C   1.0     0.204062     0.838797     0.730403  Biso 1.000000     C
    C   1.0     0.704061     0.838798     0.730403  Biso 1.000000     C
    C   1.0     0.145039     0.626120     0.642908  Biso 1.000000     C
    C   1.0     0.645038     0.626120     0.642908  Biso 1.000000     C
    C   1.0     0.136050     0.733010     0.556376  Biso 1.000000     C
    C   1.0     0.636050     0.733012     0.556377  Biso 1.000000     C
    C   1.0     0.024097     0.689326     0.516523  Biso 1.000000     C
    C   1.0     0.524098     0.689327     0.516522  Biso 1.000000     C
    C   1.0     0.159115     0.896988     0.850639  Biso 1.000000     C
    C   1.0     0.659113     0.896988     0.850638  Biso 1.000000     C
    C   1.0     0.076791     0.012598     0.883254  Biso 1.000000     C
    C   1.0     0.576792     0.012601     0.883254  Biso 1.000000     C
    C   1.0     0.043736     0.051488     0.790446  Biso 1.000000     C
    C   1.0     0.543736     0.051490     0.790446  Biso 1.000000     C
    C   1.0     0.057505     0.357214     0.026461  Biso 1.000000     C
    C   1.0     0.557504     0.357216     0.026461  Biso 1.000000     C
    C   1.0     0.075636     0.209532     0.041766  Biso 1.000000     C
    C   1.0     0.575635     0.209534     0.041766  Biso 1.000000     C
    C   1.0     0.172110     0.277893     0.149856  Biso 1.000000     C
    C   1.0     0.672109     0.277893     0.149857  Biso 1.000000     C
    C   1.0     0.165989     0.330844     0.217070  Biso 1.000000     C
    C   1.0     0.665987     0.330845     0.217070  Biso 1.000000     C
    C   1.0     0.202883     0.435790     0.246917  Biso 1.000000     C
    C   1.0     0.702881     0.435791     0.246917  Biso 1.000000     C
    C   1.0     0.201497     0.481909     0.311718  Biso 1.000000     C
    C   1.0     0.701495     0.481910     0.311719  Biso 1.000000     C
    C   1.0     0.161906     0.425190     0.345552  Biso 1.000000     C
    C   1.0     0.661904     0.425190     0.345552  Biso 1.000000     C
    C   1.0     0.122109     0.322672     0.313524  Biso 1.000000     C
    C   1.0     0.622107     0.322672     0.313524  Biso 1.000000     C
    C   1.0     0.124925     0.274134     0.249731  Biso 1.000000     C
    C   1.0     0.624923     0.274134     0.249731  Biso 1.000000     C
    C   1.0     0.243457     0.498126     0.210346  Biso 1.000000     C
    C   1.0     0.743455     0.498127     0.210346  Biso 1.000000     C
    C   1.0     0.085247     0.162316     0.218763  Biso 1.000000     C
    C   1.0     0.585245     0.162317     0.218762  Biso 1.000000     C
    C   1.0     0.161569     0.473050     0.415462  Biso 1.000000     C
    C   1.0     0.661566     0.473050     0.415462  Biso 1.000000     C
    C   1.0     0.242686     0.593433     0.344757  Biso 1.000000     C
    C   1.0     0.742684     0.593433     0.344758  Biso 1.000000     C
    C   1.0     0.201415     0.747953     0.403384  Biso 1.000000     C
    C   1.0     0.701413     0.747952     0.403385  Biso 1.000000     C
    C   1.0     0.111472     0.741312     0.325570  Biso 1.000000     C
    C   1.0     0.611471     0.741313     0.325570  Biso 1.000000     C
    C   1.0     0.073918     0.265948     0.346928  Biso 1.000000     C
    C   1.0     0.573916     0.265948     0.346928  Biso 1.000000     C
    C   1.0     0.064365     0.098221     0.387277  Biso 1.000000     C
    C   1.0     0.564363     0.098221     0.387277  Biso 1.000000     C
    C   1.0     0.174678     0.101786     0.418633  Biso 1.000000     C
    C   1.0     0.674676     0.101787     0.418632  Biso 1.000000     C
    N   1.0     0.493007     0.681193     0.138489  Biso 1.000000     N
    N   1.0     0.993010     0.681191     0.138490  Biso 1.000000     N
    N   1.0     0.487824     0.541069     0.178303  Biso 1.000000     N
    N   1.0     0.987826     0.541071     0.178305  Biso 1.000000     N
    N   1.0     0.420735     0.558651     0.167488  Biso 1.000000     N
    N   1.0     0.920736     0.558649     0.167486  Biso 1.000000     N
    N   1.0     0.391651     0.334192     0.411714  Biso 1.000000     N
    N   1.0     0.891651     0.334192     0.411714  Biso 1.000000     N
    N   1.0     0.463783     0.363054     0.436676  Biso 1.000000     N
    N   1.0     0.963783     0.363050     0.436673  Biso 1.000000     N
    N   1.0     0.416012     0.250679     0.489615  Biso 1.000000     N
    N   1.0     0.916012     0.250680     0.489615  Biso 1.000000     N
    N   1.0     0.392298     0.035997     0.160116  Biso 1.000000     N
    N   1.0     0.892297     0.035997     0.160116  Biso 1.000000     N
    N   1.0     0.413041     0.012231     0.220009  Biso 1.000000     N
    N   1.0     0.913039     0.012229     0.220008  Biso 1.000000     N
    N   1.0     0.464239     0.930901     0.146714  Biso 1.000000     N
    N   1.0     0.964238     0.930900     0.146713  Biso 1.000000     N
    N   1.0     0.462624     0.748230     0.000000  Biso 1.000000     N
    N   1.0     0.962623     0.748231     0.000000  Biso 1.000000     N
    N   1.0     0.383233     0.712993     0.906521  Biso 1.000000     N
    N   1.0     0.883234     0.712994     0.906520  Biso 1.000000     N
    N   1.0     0.394488     0.617174     0.915392  Biso 1.000000     N
    N   1.0     0.894485     0.617175     0.915393  Biso 1.000000     N
    N   1.0     0.303756     0.332245     0.648182  Biso 1.000000     N
    N   1.0     0.803756     0.332247     0.648182  Biso 1.000000     N
    N   1.0     0.361205     0.337286     0.698881  Biso 1.000000     N
    N   1.0     0.861203     0.337285     0.698882  Biso 1.000000     N
    N   1.0     0.352091     0.204453     0.611561  Biso 1.000000     N
    N   1.0     0.852091     0.204455     0.611561  Biso 1.000000     N
    N   1.0     0.398545     0.816757     0.625203  Biso 1.000000     N
    N   1.0     0.898543     0.816757     0.625203  Biso 1.000000     N
    N   1.0     0.327316     0.812774     0.604900  Biso 1.000000     N
    N   1.0     0.827314     0.812774     0.604898  Biso 1.000000     N
    N   1.0     0.390511     0.954735     0.585170  Biso 1.000000     N
    N   1.0     0.890510     0.954737     0.585171  Biso 1.000000     N
    N   1.0     0.006968     0.318802     0.861544  Biso 1.000000     N
    N   1.0     0.506972     0.318801     0.861545  Biso 1.000000     N
    N   1.0     0.012153     0.458925     0.821731  Biso 1.000000     N
    N   1.0     0.512155     0.458925     0.821732  Biso 1.000000     N
    N   1.0     0.079242     0.441342     0.832547  Biso 1.000000     N
    N   1.0     0.579245     0.441345     0.832549  Biso 1.000000     N
    N   1.0     0.108332     0.665806     0.588324  Biso 1.000000     N
    N   1.0     0.608331     0.665806     0.588324  Biso 1.000000     N
    N   1.0     0.036199     0.636944     0.563363  Biso 1.000000     N
    N   1.0     0.536199     0.636942     0.563361  Biso 1.000000     N
    N   1.0     0.083970     0.749319     0.510423  Biso 1.000000     N
    N   1.0     0.583971     0.749319     0.510423  Biso 1.000000     N
    N   1.0     0.107685     0.963997     0.839920  Biso 1.000000     N
    N   1.0     0.607684     0.963997     0.839919  Biso 1.000000     N
    N   1.0     0.086944     0.987767     0.780028  Biso 1.000000     N
    N   1.0     0.586943     0.987767     0.780027  Biso 1.000000     N
    N   1.0     0.035743     0.069093     0.853322  Biso 1.000000     N
    N   1.0     0.535742     0.069092     0.853321  Biso 1.000000     N
    N   1.0     0.037360     0.251763    -0.001798  Biso 1.000000     N
    N   1.0     0.537360     0.251765    -0.001798  Biso 1.000000     N
    N   1.0     0.116754     0.287003     0.093513  Biso 1.000000     N
    N   1.0     0.616752     0.287004     0.093513  Biso 1.000000     N
    N   1.0     0.105499     0.382821     0.084640  Biso 1.000000     N
    N   1.0     0.605500     0.382823     0.084640  Biso 1.000000     N
    N   1.0     0.196225     0.667751     0.351853  Biso 1.000000     N
    N   1.0     0.696225     0.667752     0.351852  Biso 1.000000     N
    N   1.0     0.138780     0.662715     0.301151  Biso 1.000000     N
    N   1.0     0.638779     0.662715     0.301151  Biso 1.000000     N
    N   1.0     0.147887     0.795539     0.388474  Biso 1.000000     N
    N   1.0     0.647887     0.795541     0.388474  Biso 1.000000     N
    N   1.0     0.101436     0.183240     0.374830  Biso 1.000000     N
    N   1.0     0.601434     0.183240     0.374829  Biso 1.000000     N
    N   1.0     0.172666     0.187223     0.395135  Biso 1.000000     N
    N   1.0     0.672664     0.187226     0.395135  Biso 1.000000     N
    N   1.0     0.109470     0.045263     0.414864  Biso 1.000000     N
    N   1.0     0.609469     0.045266     0.414866  Biso 1.000000     N
    O   1.0     0.148549     0.781876     0.143015  Biso 1.000000     O
    O   1.0     0.648553     0.781881     0.143015  Biso 1.000000     O
    O   1.0     0.133810     0.913534     0.218303  Biso 1.000000     O
    O   1.0     0.633810     0.913532     0.218304  Biso 1.000000     O
    O   1.0     0.310502     0.013155     0.448043  Biso 1.000000     O
    O   1.0     0.810500     0.013158     0.448043  Biso 1.000000     O
    O   1.0     0.421259     0.008472     0.443171  Biso 1.000000     O
    O   1.0     0.921258     0.008475     0.443174  Biso 1.000000     O
    O   1.0     0.416473     0.763190     0.418024  Biso 1.000000     O
    O   1.0     0.916475     0.763184     0.418022  Biso 1.000000     O
    O   1.0     0.489070     0.844968     0.366205  Biso 1.000000     O
    O   1.0     0.989072     0.844969     0.366206  Biso 1.000000     O
    O   1.0     0.351427     0.218097     0.857018  Biso 1.000000     O
    O   1.0     0.851428     0.218097     0.857020  Biso 1.000000     O
    O   1.0     0.366158     0.086429     0.781732  Biso 1.000000     O
    O   1.0     0.866157     0.086425     0.781735  Biso 1.000000     O
    O   1.0     0.189474     0.986842     0.551988  Biso 1.000000     O
    O   1.0     0.689472     0.986841     0.551989  Biso 1.000000     O
    O   1.0     0.078717     0.991515     0.556866  Biso 1.000000     O
    O   1.0     0.578716     0.991514     0.556870  Biso 1.000000     O
    O   1.0     0.083510     0.236818     0.582020  Biso 1.000000     O
    O   1.0     0.583514     0.236823     0.582024  Biso 1.000000     O
    O   1.0     0.010910     0.155037     0.633835  Biso 1.000000     O
    O   1.0     0.510911     0.155047     0.633839  Biso 1.000000     O
   Cl   1.0     0.106213     0.970175     0.049664  Biso 1.000000    Cl
   Cl   1.0     0.606215     0.970180     0.049663  Biso 1.000000    Cl
   Cl   1.0     0.393768     0.029815     0.950376  Biso 1.000000    Cl
   Cl   1.0     0.893770     0.029818     0.950375  Biso 1.000000    Cl
   Cd   1.0     0.045982     0.841743     0.106936  Biso 1.000000    Cd
   Cd   1.0     0.545987     0.841744     0.106934  Biso 1.000000    Cd
   Cd   1.0     0.414939     0.107997     0.545147  Biso 1.000000    Cd
   Cd   1.0     0.914942     0.107999     0.545149  Biso 1.000000    Cd
   Cd   1.0     0.453993     0.158246     0.893102  Biso 1.000000    Cd
   Cd   1.0     0.953998     0.158245     0.893100  Biso 1.000000    Cd
   Cd   1.0     0.085040     0.891997     0.454888  Biso 1.000000    Cd
   Cd   1.0     0.585042     0.892000     0.454890  Biso 1.000000    Cd
