#======================================================================

# CRYSTAL DATA

#----------------------------------------------------------------------

data_VESTA_phase_1


_pd_phase_name                         MOF
_cell_length_a                         15.54100
_cell_length_b                         15.53600
_cell_length_c                         15.53300
_cell_angle_alpha                      76.13000
_cell_angle_beta                       76.13400
_cell_angle_gamma                      76.13900
_symmetry_space_group_name_H-M         "P 1"
_symmetry_Int_Tables_number            1

loop_
_symmetry_equiv_pos_as_xyz
   "x, y, z"

loop_
   _atom_site_label
   _atom_site_occupancy
   _atom_site_fract_x
   _atom_site_fract_y
   _atom_site_fract_z
   _atom_site_adp_type
   _atom_site_B_iso_or_equiv
   _atom_site_type_symbol
    H   1.0     0.976127     0.201630     0.507745  Biso 1.000000     H
    H   1.0     0.507805     0.975993     0.201629  Biso 1.000000     H
    H   1.0     0.201681     0.507533     0.975952  Biso 1.000000     H
    H   1.0     0.798342     0.024018     0.492490  Biso 1.000000     H
    H   1.0     0.023870     0.492228     0.798383  Biso 1.000000     H
    H   1.0     0.492192     0.798364     0.024070  Biso 1.000000     H
    H   1.0     0.023870     0.798365     0.492281  Biso 1.000000     H
    H   1.0     0.492193     0.023998     0.798395  Biso 1.000000     H
    H   1.0     0.798319     0.492463     0.024075  Biso 1.000000     H
    H   1.0     0.201657     0.975978     0.507536  Biso 1.000000     H
    H   1.0     0.976127     0.507763     0.201641  Biso 1.000000     H
    H   1.0     0.507801     0.201626     0.975953  Biso 1.000000     H
    H   1.0     0.237874     0.237664     0.522278  Biso 1.000000     H
    H   1.0     0.522596     0.237723     0.237688  Biso 1.000000     H
    H   1.0     0.237877     0.522310     0.237651  Biso 1.000000     H
    H   1.0     0.762123     0.762334     0.477745  Biso 1.000000     H
    H   1.0     0.762117     0.477684     0.762379  Biso 1.000000     H
    H   1.0     0.477400     0.762269     0.762334  Biso 1.000000     H
    C   1.0     0.065631     0.327523     0.514772  Biso 1.000000     C
    C   1.0     0.102931     0.229209     0.515597  Biso 1.000000     C
    C   1.0     0.046786     0.173212     0.510504  Biso 1.000000     C
    C   1.0     0.514959     0.065481     0.327526  Biso 1.000000     C
    C   1.0     0.515811     0.102788     0.229204  Biso 1.000000     C
    C   1.0     0.510640     0.046663     0.173211  Biso 1.000000     C
    C   1.0     0.327580     0.514634     0.065398  Biso 1.000000     C
    C   1.0     0.229301     0.515523     0.102725  Biso 1.000000     C
    C   1.0     0.173292     0.510387     0.046609  Biso 1.000000     C
    C   1.0     0.672420     0.934570     0.485383  Biso 1.000000     C
    C   1.0     0.770700     0.897245     0.484507  Biso 1.000000     C
    C   1.0     0.826712     0.953350     0.489650  Biso 1.000000     C
    C   1.0     0.934361     0.485174     0.672496  Biso 1.000000     C
    C   1.0     0.897065     0.484359     0.770823  Biso 1.000000     C
    C   1.0     0.953209     0.489473     0.826815  Biso 1.000000     C
    C   1.0     0.485060     0.672463     0.934598  Biso 1.000000     C
    C   1.0     0.484191     0.770770     0.897284  Biso 1.000000     C
    C   1.0     0.489374     0.826758     0.953409  Biso 1.000000     C
    C   1.0     0.934363     0.672473     0.485255  Biso 1.000000     C
    C   1.0     0.897065     0.770787     0.484428  Biso 1.000000     C
    C   1.0     0.953212     0.826783     0.489520  Biso 1.000000     C
    C   1.0     0.485038     0.934510     0.672496  Biso 1.000000     C
    C   1.0     0.484186     0.897203     0.770819  Biso 1.000000     C
    C   1.0     0.489356     0.953327     0.826813  Biso 1.000000     C
    C   1.0     0.672417     0.485360     0.934633  Biso 1.000000     C
    C   1.0     0.770695     0.484471     0.897304  Biso 1.000000     C
    C   1.0     0.826706     0.489608     0.953417  Biso 1.000000     C
    C   1.0     0.327578     0.065429     0.514641  Biso 1.000000     C
    C   1.0     0.229298     0.102754     0.515516  Biso 1.000000     C
    C   1.0     0.173287     0.046647     0.510376  Biso 1.000000     C
    C   1.0     0.065631     0.514820     0.327530  Biso 1.000000     C
    C   1.0     0.102930     0.515635     0.229204  Biso 1.000000     C
    C   1.0     0.046787     0.510519     0.173210  Biso 1.000000     C
    C   1.0     0.514933     0.327528     0.065424  Biso 1.000000     C
    C   1.0     0.515803     0.229221     0.102739  Biso 1.000000     C
    C   1.0     0.510621     0.173232     0.046614  Biso 1.000000     C
    C   1.0     0.081184     0.081098     0.508206  Biso 1.000000     C
    C   1.0     0.024390     0.024355     0.502607  Biso 1.000000     C
    C   1.0     0.194150     0.193997     0.518684  Biso 1.000000     C
    C   1.0     0.508374     0.081115     0.081080  Biso 1.000000     C
    C   1.0     0.502642     0.024369     0.024353  Biso 1.000000     C
    C   1.0     0.518977     0.194024     0.193993  Biso 1.000000     C
    C   1.0     0.081187     0.508222     0.081077  Biso 1.000000     C
    C   1.0     0.024390     0.502598     0.024349  Biso 1.000000     C
    C   1.0     0.194150     0.518716     0.193982  Biso 1.000000     C
    C   1.0     0.918815     0.918897     0.491819  Biso 1.000000     C
    C   1.0     0.975609     0.975639     0.497418  Biso 1.000000     C
    C   1.0     0.805846     0.806001     0.481340  Biso 1.000000     C
    C   1.0     0.918811     0.491771     0.918948  Biso 1.000000     C
    C   1.0     0.975610     0.497395     0.975675  Biso 1.000000     C
    C   1.0     0.805844     0.481278     0.806047  Biso 1.000000     C
    C   1.0     0.491622     0.918875     0.918943  Biso 1.000000     C
    C   1.0     0.497354     0.975621     0.975671  Biso 1.000000     C
    C   1.0     0.481019     0.805967     0.806030  Biso 1.000000     C
    O   1.0     0.983644     0.356554     0.504719  Biso 1.000000     O
    O   1.0     0.118556     0.375346     0.522958  Biso 1.000000     O
    O   1.0     0.504906     0.983465     0.356570  Biso 1.000000     O
    O   1.0     0.523059     0.118468     0.375345  Biso 1.000000     O
    O   1.0     0.356614     0.504572     0.983398  Biso 1.000000     O
    O   1.0     0.375376     0.522740     0.118396  Biso 1.000000     O
    O   1.0     0.643409     0.016575     0.495452  Biso 1.000000     O
    O   1.0     0.624613     0.881593     0.477269  Biso 1.000000     O
    O   1.0     0.016347     0.495239     0.643453  Biso 1.000000     O
    O   1.0     0.881432     0.476995     0.624670  Biso 1.000000     O
    O   1.0     0.495096     0.643427     0.016603  Biso 1.000000     O
    O   1.0     0.476998     0.624653     0.881583  Biso 1.000000     O
    O   1.0     0.016348     0.643440     0.495314  Biso 1.000000     O
    O   1.0     0.881441     0.624652     0.477060  Biso 1.000000     O
    O   1.0     0.495093     0.016526     0.643453  Biso 1.000000     O
    O   1.0     0.476936     0.881525     0.624677  Biso 1.000000     O
    O   1.0     0.643382     0.495429     0.016630  Biso 1.000000     O
    O   1.0     0.624621     0.477249     0.881637  Biso 1.000000     O
    O   1.0     0.356589     0.983425     0.504572  Biso 1.000000     O
    O   1.0     0.375384     0.118406     0.522758  Biso 1.000000     O
    O   1.0     0.983648     0.504746     0.356575  Biso 1.000000     O
    O   1.0     0.118558     0.523006     0.375356  Biso 1.000000     O
    O   1.0     0.504890     0.356565     0.983422  Biso 1.000000     O
    O   1.0     0.523004     0.375337     0.118437  Biso 1.000000     O
   Zn   1.0     0.075544     0.510840     0.510855  Biso 1.000000    Zn
   Zn   1.0     0.510830     0.075619     0.510840  Biso 1.000000    Zn
   Zn   1.0     0.510812     0.510818     0.075657  Biso 1.000000    Zn
   Zn   1.0     0.489167     0.924380     0.489184  Biso 1.000000    Zn
   Zn   1.0     0.924444     0.489155     0.489172  Biso 1.000000    Zn
   Zn   1.0     0.489185     0.489173     0.924373  Biso 1.000000    Zn
