#======================================================================

# CRYSTAL DATA

#----------------------------------------------------------------------

data_VESTA_phase_1


_pd_phase_name                         MOF
_cell_length_a                         23.03700
_cell_length_b                         15.26200
_cell_length_c                         18.16400
_cell_angle_alpha                      89.98200
_cell_angle_beta                       90.00000
_cell_angle_gamma                      89.90200
_symmetry_space_group_name_H-M         "P 1"
_symmetry_Int_Tables_number            1

loop_
_symmetry_equiv_pos_as_xyz
   "x, y, z"

loop_
   _atom_site_label
   _atom_site_occupancy
   _atom_site_fract_x
   _atom_site_fract_y
   _atom_site_fract_z
   _atom_site_adp_type
   _atom_site_B_iso_or_equiv
   _atom_site_type_symbol
    H   1.0     0.348912     0.677727     0.047755  Biso 1.000000     H
    H   1.0     0.848922     0.677728     0.047755  Biso 1.000000     H
    H   1.0     0.456210     0.685972     0.048265  Biso 1.000000     H
    H   1.0     0.956220     0.685972     0.048264  Biso 1.000000     H
    H   1.0     0.457043     0.426438     0.145158  Biso 1.000000     H
    H   1.0     0.957053     0.426437     0.145156  Biso 1.000000     H
    H   1.0     0.349855     0.430647     0.140275  Biso 1.000000     H
    H   1.0     0.849865     0.430647     0.140274  Biso 1.000000     H
    H   1.0     0.349210     0.322221     0.952274  Biso 1.000000     H
    H   1.0     0.849220     0.322221     0.952274  Biso 1.000000     H
    H   1.0     0.456530     0.314009     0.951762  Biso 1.000000     H
    H   1.0     0.956540     0.314009     0.951762  Biso 1.000000     H
    H   1.0     0.456738     0.573492     0.854773  Biso 1.000000     H
    H   1.0     0.956748     0.573492     0.854772  Biso 1.000000     H
    H   1.0     0.349565     0.569241     0.859638  Biso 1.000000     H
    H   1.0     0.849575     0.569240     0.859637  Biso 1.000000     H
    H   1.0     0.151095     0.822208     0.547684  Biso 1.000000     H
    H   1.0     0.651105     0.822208     0.547685  Biso 1.000000     H
    H   1.0     0.043798     0.813955     0.548226  Biso 1.000000     H
    H   1.0     0.543808     0.813955     0.548227  Biso 1.000000     H
    H   1.0     0.042970     0.073433     0.645144  Biso 1.000000     H
    H   1.0     0.542980     0.073434     0.645143  Biso 1.000000     H
    H   1.0     0.150159     0.069228     0.640242  Biso 1.000000     H
    H   1.0     0.650169     0.069228     0.640241  Biso 1.000000     H
    H   1.0     0.150791     0.177792     0.452345  Biso 1.000000     H
    H   1.0     0.650801     0.177792     0.452345  Biso 1.000000     H
    H   1.0     0.043472     0.186012     0.451800  Biso 1.000000     H
    H   1.0     0.543481     0.186012     0.451800  Biso 1.000000     H
    H   1.0     0.043275     0.926586     0.354784  Biso 1.000000     H
    H   1.0     0.543285     0.926585     0.354786  Biso 1.000000     H
    H   1.0     0.150449     0.930833     0.359670  Biso 1.000000     H
    H   1.0     0.650459     0.930833     0.359671  Biso 1.000000     H
    H   1.0     0.151096     0.322246     0.952223  Biso 1.000000     H
    H   1.0     0.651106     0.322246     0.952223  Biso 1.000000     H
    H   1.0     0.043798     0.314001     0.951712  Biso 1.000000     H
    H   1.0     0.543808     0.314001     0.951711  Biso 1.000000     H
    H   1.0     0.042965     0.573535     0.854819  Biso 1.000000     H
    H   1.0     0.542975     0.573535     0.854819  Biso 1.000000     H
    H   1.0     0.150153     0.569326     0.859702  Biso 1.000000     H
    H   1.0     0.650163     0.569326     0.859703  Biso 1.000000     H
    H   1.0     0.150798     0.677753     0.047705  Biso 1.000000     H
    H   1.0     0.650807     0.677752     0.047704  Biso 1.000000     H
    H   1.0     0.043478     0.685966     0.048219  Biso 1.000000     H
    H   1.0     0.543488     0.685965     0.048217  Biso 1.000000     H
    H   1.0     0.043270     0.426483     0.145208  Biso 1.000000     H
    H   1.0     0.543280     0.426482     0.145207  Biso 1.000000     H
    H   1.0     0.150443     0.430733     0.140341  Biso 1.000000     H
    H   1.0     0.650453     0.430733     0.140341  Biso 1.000000     H
    H   1.0     0.348913     0.177766     0.452293  Biso 1.000000     H
    H   1.0     0.848923     0.177766     0.452293  Biso 1.000000     H
    H   1.0     0.456210     0.186019     0.451751  Biso 1.000000     H
    H   1.0     0.956220     0.186019     0.451752  Biso 1.000000     H
    H   1.0     0.457037     0.926540     0.354835  Biso 1.000000     H
    H   1.0     0.957047     0.926539     0.354836  Biso 1.000000     H
    H   1.0     0.349849     0.930745     0.359737  Biso 1.000000     H
    H   1.0     0.849859     0.930745     0.359737  Biso 1.000000     H
    H   1.0     0.349217     0.822181     0.547634  Biso 1.000000     H
    H   1.0     0.849227     0.822181     0.547633  Biso 1.000000     H
    H   1.0     0.456536     0.813962     0.548178  Biso 1.000000     H
    H   1.0     0.956546     0.813962     0.548178  Biso 1.000000     H
    H   1.0     0.456733     0.073390     0.645191  Biso 1.000000     H
    H   1.0     0.956743     0.073388     0.645193  Biso 1.000000     H
    H   1.0     0.349559     0.069141     0.640307  Biso 1.000000     H
    H   1.0     0.849569     0.069141     0.640308  Biso 1.000000     H
    H   1.0     0.250015     0.973127     0.832412  Biso 1.000000     H
    H   1.0     0.750035     0.973127     0.832412  Biso 1.000000     H
    H   1.0     0.249962     0.796932     0.019268  Biso 1.000000     H
    H   1.0     0.749980     0.796932     0.019268  Biso 1.000000     H
    H   1.0     0.249970     0.695115     0.797639  Biso 1.000000     H
    H   1.0     0.749978     0.695115     0.797639  Biso 1.000000     H
    H   1.0     0.249986     0.026846     0.167567  Biso 1.000000     H
    H   1.0     0.749998     0.026846     0.167566  Biso 1.000000     H
    H   1.0     0.250040     0.203042     0.980710  Biso 1.000000     H
    H   1.0     0.750052     0.203042     0.980710  Biso 1.000000     H
    H   1.0     0.250045     0.304859     0.202340  Biso 1.000000     H
    H   1.0     0.750048     0.304859     0.202340  Biso 1.000000     H
    H   1.0     0.249985     0.526902     0.332427  Biso 1.000000     H
    H   1.0     0.749998     0.526902     0.332427  Biso 1.000000     H
    H   1.0     0.250042     0.703009     0.519222  Biso 1.000000     H
    H   1.0     0.750053     0.703009     0.519222  Biso 1.000000     H
    H   1.0     0.250038     0.804931     0.297594  Biso 1.000000     H
    H   1.0     0.750049     0.804931     0.297594  Biso 1.000000     H
    H   1.0     0.250021     0.473072     0.667551  Biso 1.000000     H
    H   1.0     0.750030     0.473072     0.667551  Biso 1.000000     H
    H   1.0     0.249965     0.296964     0.480756  Biso 1.000000     H
    H   1.0     0.749975     0.296964     0.480756  Biso 1.000000     H
    H   1.0     0.249970     0.195042     0.702384  Biso 1.000000     H
    H   1.0     0.749978     0.195042     0.702384  Biso 1.000000     H
    C   1.0     0.375060     0.623441     0.068345  Biso 1.000000     C
    C   1.0     0.875070     0.623441     0.068343  Biso 1.000000     C
    C   1.0     0.435330     0.627088     0.069124  Biso 1.000000     C
    C   1.0     0.935340     0.627088     0.069124  Biso 1.000000     C
    C   1.0     0.467792     0.555911     0.096035  Biso 1.000000     C
    C   1.0     0.967802     0.555911     0.096034  Biso 1.000000     C
    C   1.0     0.435810     0.484170     0.122508  Biso 1.000000     C
    C   1.0     0.935819     0.484170     0.122507  Biso 1.000000     C
    C   1.0     0.375579     0.485459     0.120026  Biso 1.000000     C
    C   1.0     0.875589     0.485458     0.120024  Biso 1.000000     C
    C   1.0     0.375228     0.376502     0.931655  Biso 1.000000     C
    C   1.0     0.875237     0.376501     0.931654  Biso 1.000000     C
    C   1.0     0.435507     0.372873     0.930878  Biso 1.000000     C
    C   1.0     0.935517     0.372872     0.930877  Biso 1.000000     C
    C   1.0     0.467799     0.444048     0.903942  Biso 1.000000     C
    C   1.0     0.967809     0.444048     0.903942  Biso 1.000000     C
    C   1.0     0.435645     0.515762     0.877441  Biso 1.000000     C
    C   1.0     0.935654     0.515761     0.877440  Biso 1.000000     C
    C   1.0     0.375418     0.514450     0.879913  Biso 1.000000     C
    C   1.0     0.875428     0.514450     0.879912  Biso 1.000000     C
    C   1.0     0.124950     0.876472     0.568290  Biso 1.000000     C
    C   1.0     0.624959     0.876472     0.568292  Biso 1.000000     C
    C   1.0     0.064680     0.872821     0.569086  Biso 1.000000     C
    C   1.0     0.564689     0.872821     0.569087  Biso 1.000000     C
    C   1.0     0.032219     0.943974     0.596008  Biso 1.000000     C
    C   1.0     0.532229     0.943974     0.596008  Biso 1.000000     C
    C   1.0     0.064201     0.015721     0.622484  Biso 1.000000     C
    C   1.0     0.564211     0.015721     0.622484  Biso 1.000000     C
    C   1.0     0.124432     0.014436     0.619990  Biso 1.000000     C
    C   1.0     0.624441     0.014436     0.619991  Biso 1.000000     C
    C   1.0     0.124776     0.123535     0.431707  Biso 1.000000     C
    C   1.0     0.624786     0.123534     0.431707  Biso 1.000000     C
    C   1.0     0.064496     0.127166     0.430916  Biso 1.000000     C
    C   1.0     0.564506     0.127166     0.430916  Biso 1.000000     C
    C   1.0     0.032207     0.056015     0.403969  Biso 1.000000     C
    C   1.0     0.532216     0.056015     0.403969  Biso 1.000000     C
    C   1.0     0.064366     0.984295     0.377464  Biso 1.000000     C
    C   1.0     0.564376     0.984295     0.377464  Biso 1.000000     C
    C   1.0     0.124592     0.985605     0.379945  Biso 1.000000     C
    C   1.0     0.624602     0.985604     0.379947  Biso 1.000000     C
    C   1.0     0.124948     0.376532     0.931633  Biso 1.000000     C
    C   1.0     0.624958     0.376532     0.931632  Biso 1.000000     C
    C   1.0     0.064678     0.372885     0.930854  Biso 1.000000     C
    C   1.0     0.564687     0.372885     0.930853  Biso 1.000000     C
    C   1.0     0.032216     0.444062     0.903943  Biso 1.000000     C
    C   1.0     0.532226     0.444063     0.903943  Biso 1.000000     C
    C   1.0     0.064198     0.515803     0.877470  Biso 1.000000     C
    C   1.0     0.564208     0.515803     0.877470  Biso 1.000000     C
    C   1.0     0.124429     0.514514     0.879952  Biso 1.000000     C
    C   1.0     0.624439     0.514514     0.879951  Biso 1.000000     C
    C   1.0     0.124780     0.623474     0.068326  Biso 1.000000     C
    C   1.0     0.624790     0.623473     0.068325  Biso 1.000000     C
    C   1.0     0.064500     0.627102     0.069101  Biso 1.000000     C
    C   1.0     0.564510     0.627101     0.069101  Biso 1.000000     C
    C   1.0     0.032209     0.555926     0.096037  Biso 1.000000     C
    C   1.0     0.532219     0.555926     0.096036  Biso 1.000000     C
    C   1.0     0.064363     0.484212     0.122538  Biso 1.000000     C
    C   1.0     0.564373     0.484212     0.122538  Biso 1.000000     C
    C   1.0     0.124590     0.485525     0.120069  Biso 1.000000     C
    C   1.0     0.624599     0.485524     0.120067  Biso 1.000000     C
    C   1.0     0.375058     0.123502     0.431686  Biso 1.000000     C
    C   1.0     0.875068     0.123501     0.431687  Biso 1.000000     C
    C   1.0     0.435328     0.127153     0.430891  Biso 1.000000     C
    C   1.0     0.935338     0.127152     0.430892  Biso 1.000000     C
    C   1.0     0.467788     0.055999     0.403971  Biso 1.000000     C
    C   1.0     0.967798     0.055999     0.403971  Biso 1.000000     C
    C   1.0     0.435807     0.984253     0.377495  Biso 1.000000     C
    C   1.0     0.935816     0.984252     0.377495  Biso 1.000000     C
    C   1.0     0.375576     0.985538     0.379988  Biso 1.000000     C
    C   1.0     0.875586     0.985537     0.379989  Biso 1.000000     C
    C   1.0     0.375232     0.876439     0.568271  Biso 1.000000     C
    C   1.0     0.875242     0.876439     0.568271  Biso 1.000000     C
    C   1.0     0.435512     0.872808     0.569063  Biso 1.000000     C
    C   1.0     0.935521     0.872808     0.569063  Biso 1.000000     C
    C   1.0     0.467801     0.943959     0.596009  Biso 1.000000     C
    C   1.0     0.967811     0.943958     0.596010  Biso 1.000000     C
    C   1.0     0.435642     0.015679     0.622513  Biso 1.000000     C
    C   1.0     0.935652     0.015678     0.622514  Biso 1.000000     C
    C   1.0     0.375416     0.014370     0.620031  Biso 1.000000     C
    C   1.0     0.875426     0.014369     0.620032  Biso 1.000000     C
    C   1.0     0.249984     0.835811     0.807078  Biso 1.000000     C
    C   1.0     0.750016     0.835811     0.807078  Biso 1.000000     C
    C   1.0     0.250002     0.907170     0.855217  Biso 1.000000     C
    C   1.0     0.750020     0.907170     0.855217  Biso 1.000000     C
    C   1.0     0.249992     0.894562     0.932120  Biso 1.000000     C
    C   1.0     0.750007     0.894562     0.932120  Biso 1.000000     C
    C   1.0     0.249972     0.808470     0.960033  Biso 1.000000     C
    C   1.0     0.749988     0.808470     0.960033  Biso 1.000000     C
    C   1.0     0.249966     0.736861     0.911823  Biso 1.000000     C
    C   1.0     0.749981     0.736861     0.911823  Biso 1.000000     C
    C   1.0     0.249976     0.750506     0.835433  Biso 1.000000     C
    C   1.0     0.749990     0.750506     0.835433  Biso 1.000000     C
    C   1.0     0.249997     0.851244     0.724859  Biso 1.000000     C
    C   1.0     0.750019     0.851244     0.724859  Biso 1.000000     C
    C   1.0     0.249946     0.645797     0.943151  Biso 1.000000     C
    C   1.0     0.749964     0.645797     0.943151  Biso 1.000000     C
    C   1.0     0.249993     0.967849     0.980020  Biso 1.000000     C
    C   1.0     0.750017     0.967849     0.980020  Biso 1.000000     C
    C   1.0     0.250011     0.164162     0.192900  Biso 1.000000     C
    C   1.0     0.750021     0.164162     0.192900  Biso 1.000000     C
    C   1.0     0.249999     0.092803     0.144761  Biso 1.000000     C
    C   1.0     0.750011     0.092803     0.144761  Biso 1.000000     C
    C   1.0     0.250013     0.105412     0.067858  Biso 1.000000     C
    C   1.0     0.750024     0.105412     0.067858  Biso 1.000000     C
    C   1.0     0.250030     0.191504     0.039945  Biso 1.000000     C
    C   1.0     0.750043     0.191504     0.039945  Biso 1.000000     C
    C   1.0     0.250038     0.263113     0.088156  Biso 1.000000     C
    C   1.0     0.750049     0.263113     0.088156  Biso 1.000000     C
    C   1.0     0.250035     0.249467     0.164546  Biso 1.000000     C
    C   1.0     0.750040     0.249467     0.164546  Biso 1.000000     C
    C   1.0     0.250001     0.148730     0.275119  Biso 1.000000     C
    C   1.0     0.750014     0.148730     0.275119  Biso 1.000000     C
    C   1.0     0.250054     0.354177     0.056827  Biso 1.000000     C
    C   1.0     0.750067     0.354177     0.056827  Biso 1.000000     C
    C   1.0     0.249998     0.032125     0.019958  Biso 1.000000     C
    C   1.0     0.750020     0.032125     0.019958  Biso 1.000000     C
    C   1.0     0.250011     0.664223     0.307060  Biso 1.000000     C
    C   1.0     0.750023     0.664223     0.307060  Biso 1.000000     C
    C   1.0     0.250000     0.592849     0.355218  Biso 1.000000     C
    C   1.0     0.750011     0.592849     0.355218  Biso 1.000000     C
    C   1.0     0.250009     0.605427     0.432115  Biso 1.000000     C
    C   1.0     0.750021     0.605427     0.432115  Biso 1.000000     C
    C   1.0     0.250030     0.691503     0.460011  Biso 1.000000     C
    C   1.0     0.750041     0.691503     0.460011  Biso 1.000000     C
    C   1.0     0.250037     0.763134     0.411790  Biso 1.000000     C
    C   1.0     0.750048     0.763134     0.411790  Biso 1.000000     C
    C   1.0     0.250027     0.749520     0.335398  Biso 1.000000     C
    C   1.0     0.750040     0.749520     0.335398  Biso 1.000000     C
    C   1.0     0.250006     0.648787     0.224845  Biso 1.000000     C
    C   1.0     0.750016     0.648787     0.224845  Biso 1.000000     C
    C   1.0     0.250056     0.854176     0.443126  Biso 1.000000     C
    C   1.0     0.750066     0.854176     0.443126  Biso 1.000000     C
    C   1.0     0.250005     0.532122     0.480027  Biso 1.000000     C
    C   1.0     0.750016     0.532122     0.480027  Biso 1.000000     C
    C   1.0     0.249997     0.335751     0.692918  Biso 1.000000     C
    C   1.0     0.750005     0.335751     0.692918  Biso 1.000000     C
    C   1.0     0.250007     0.407125     0.644760  Biso 1.000000     C
    C   1.0     0.750017     0.407125     0.644760  Biso 1.000000     C
    C   1.0     0.249997     0.394547     0.567863  Biso 1.000000     C
    C   1.0     0.750006     0.394547     0.567863  Biso 1.000000     C
    C   1.0     0.249977     0.308471     0.539967  Biso 1.000000     C
    C   1.0     0.749987     0.308471     0.539967  Biso 1.000000     C
    C   1.0     0.249970     0.236839     0.588189  Biso 1.000000     C
    C   1.0     0.749980     0.236839     0.588189  Biso 1.000000     C
    C   1.0     0.249980     0.250453     0.664580  Biso 1.000000     C
    C   1.0     0.749988     0.250453     0.664580  Biso 1.000000     C
    C   1.0     0.250002     0.351186     0.775133  Biso 1.000000     C
    C   1.0     0.750012     0.351186     0.775133  Biso 1.000000     C
    C   1.0     0.249952     0.145797     0.556853  Biso 1.000000     C
    C   1.0     0.749962     0.145797     0.556853  Biso 1.000000     C
    C   1.0     0.250001     0.467852     0.519951  Biso 1.000000     C
    C   1.0     0.750012     0.467852     0.519951  Biso 1.000000     C
    N   1.0     0.345181     0.553362     0.092465  Biso 1.000000     N
    N   1.0     0.845191     0.553364     0.092467  Biso 1.000000     N
    N   1.0     0.345182     0.446553     0.907501  Biso 1.000000     N
    N   1.0     0.845192     0.446554     0.907502  Biso 1.000000     N
    N   1.0     0.154831     0.946530     0.592412  Biso 1.000000     N
    N   1.0     0.654840     0.946531     0.592411  Biso 1.000000     N
    N   1.0     0.154824     0.053500     0.407557  Biso 1.000000     N
    N   1.0     0.654834     0.053501     0.407556  Biso 1.000000     N
    N   1.0     0.154826     0.446611     0.907514  Biso 1.000000     N
    N   1.0     0.654836     0.446612     0.907515  Biso 1.000000     N
    N   1.0     0.154826     0.553419     0.092474  Biso 1.000000     N
    N   1.0     0.654836     0.553419     0.092476  Biso 1.000000     N
    N   1.0     0.345178     0.053442     0.407567  Biso 1.000000     N
    N   1.0     0.845188     0.053443     0.407566  Biso 1.000000     N
    N   1.0     0.345184     0.946473     0.592422  Biso 1.000000     N
    N   1.0     0.845193     0.946473     0.592422  Biso 1.000000     N
    O   1.0     0.249964     0.639879     0.013021  Biso 1.000000     O
    O   1.0     0.749970     0.639879     0.013021  Biso 1.000000     O
    O   1.0     0.249938     0.582356     0.897673  Biso 1.000000     O
    O   1.0     0.749944     0.582356     0.897673  Biso 1.000000     O
    O   1.0     0.250014     0.933433     0.705934  Biso 1.000000     O
    O   1.0     0.750015     0.933433     0.705934  Biso 1.000000     O
    O   1.0     0.250007     0.788380     0.681031  Biso 1.000000     O
    O   1.0     0.750009     0.788381     0.681031  Biso 1.000000     O
    O   1.0     0.250048     0.360094     0.986957  Biso 1.000000     O
    O   1.0     0.750056     0.360095     0.986957  Biso 1.000000     O
    O   1.0     0.250075     0.417617     0.102305  Biso 1.000000     O
    O   1.0     0.750082     0.417617     0.102305  Biso 1.000000     O
    O   1.0     0.250000     0.066540     0.294045  Biso 1.000000     O
    O   1.0     0.750009     0.066540     0.294045  Biso 1.000000     O
    O   1.0     0.250006     0.211593     0.318947  Biso 1.000000     O
    O   1.0     0.750015     0.211593     0.318947  Biso 1.000000     O
    O   1.0     0.250048     0.860051     0.512974  Biso 1.000000     O
    O   1.0     0.750058     0.860051     0.512974  Biso 1.000000     O
    O   1.0     0.250070     0.917647     0.397645  Biso 1.000000     O
    O   1.0     0.750081     0.917647     0.397645  Biso 1.000000     O
    O   1.0     0.250001     0.566592     0.205959  Biso 1.000000     O
    O   1.0     0.750011     0.566592     0.205959  Biso 1.000000     O
    O   1.0     0.250007     0.711658     0.180995  Biso 1.000000     O
    O   1.0     0.750017     0.711658     0.180995  Biso 1.000000     O
    O   1.0     0.249960     0.139922     0.487004  Biso 1.000000     O
    O   1.0     0.749969     0.139923     0.487004  Biso 1.000000     O
    O   1.0     0.249937     0.082326     0.602334  Biso 1.000000     O
    O   1.0     0.749947     0.082326     0.602334  Biso 1.000000     O
    O   1.0     0.250007     0.433381     0.794020  Biso 1.000000     O
    O   1.0     0.750018     0.433381     0.794019  Biso 1.000000     O
    O   1.0     0.250000     0.288316     0.818983  Biso 1.000000     O
    O   1.0     0.750010     0.288316     0.818983  Biso 1.000000     O
   Zn   1.0     0.250006     0.551919     0.097098  Biso 1.000000    Zn
   Zn   1.0     0.750016     0.551919     0.097098  Biso 1.000000    Zn
   Zn   1.0     0.250002     0.448054     0.902880  Biso 1.000000    Zn
   Zn   1.0     0.750011     0.448054     0.902880  Biso 1.000000    Zn
   Zn   1.0     0.250005     0.948010     0.597058  Biso 1.000000    Zn
   Zn   1.0     0.750014     0.948010     0.597059  Biso 1.000000    Zn
   Zn   1.0     0.250004     0.051963     0.402920  Biso 1.000000    Zn
   Zn   1.0     0.750013     0.051963     0.402920  Biso 1.000000    Zn
