#======================================================================

# CRYSTAL DATA

#----------------------------------------------------------------------

data_VESTA_phase_1


_pd_phase_name                         MOF
_cell_length_a                         12.48800
_cell_length_b                         13.57200
_cell_length_c                         18.21900
_cell_angle_alpha                      106.03900
_cell_angle_beta                       89.96800
_cell_angle_gamma                      90.04400
_symmetry_space_group_name_H-M         "P 1"
_symmetry_Int_Tables_number            1

loop_
_symmetry_equiv_pos_as_xyz
   "x, y, z"

loop_
   _atom_site_label
   _atom_site_occupancy
   _atom_site_fract_x
   _atom_site_fract_y
   _atom_site_fract_z
   _atom_site_adp_type
   _atom_site_B_iso_or_equiv
   _atom_site_type_symbol
    H   1.0     0.032772     0.933849     0.707023  Biso 1.000000     H
    H   1.0     0.532744     0.933864     0.707013  Biso 1.000000     H
    H   1.0     0.367252     0.772024     0.499389  Biso 1.000000     H
    H   1.0     0.867253     0.772044     0.499396  Biso 1.000000     H
    H   1.0     0.115912     0.064276     0.951565  Biso 1.000000     H
    H   1.0     0.615925     0.064211     0.951498  Biso 1.000000     H
    H   1.0     0.229535     0.724377     0.581138  Biso 1.000000     H
    H   1.0     0.729533     0.724393     0.581142  Biso 1.000000     H
    H   1.0     0.183657     0.936253     0.014453  Biso 1.000000     H
    H   1.0     0.683675     0.936325     0.014501  Biso 1.000000     H
    H   1.0     0.066740     0.860686     0.985790  Biso 1.000000     H
    H   1.0     0.566784     0.860703     0.985867  Biso 1.000000     H
    H   1.0     0.056453     0.965410     0.121987  Biso 1.000000     H
    H   1.0     0.556446     0.965538     0.122019  Biso 1.000000     H
    H   1.0     0.077296     0.078847     0.094697  Biso 1.000000     H
    H   1.0     0.577264     0.078934     0.094675  Biso 1.000000     H
    H   1.0     0.021282     0.783874     0.435855  Biso 1.000000     H
    H   1.0     0.521289     0.783858     0.435847  Biso 1.000000     H
    H   1.0     0.183384     0.869803     0.386929  Biso 1.000000     H
    H   1.0     0.683391     0.869790     0.386925  Biso 1.000000     H
    H   1.0     0.384342     0.884358     0.779196  Biso 1.000000     H
    H   1.0     0.884362     0.884335     0.779203  Biso 1.000000     H
    H   1.0     0.030059     0.562257     0.793198  Biso 1.000000     H
    H   1.0     0.530054     0.562273     0.793193  Biso 1.000000     H
    H   1.0     0.368721     0.729922     0.000000  Biso 1.000000     H
    H   1.0     0.868726     0.729937     0.000000  Biso 1.000000     H
    H   1.0     0.114624     0.435545     0.549406  Biso 1.000000     H
    H   1.0     0.614622     0.435542     0.549401  Biso 1.000000     H
    H   1.0     0.230715     0.777084     0.919553  Biso 1.000000     H
    H   1.0     0.730713     0.777081     0.919552  Biso 1.000000     H
    H   1.0     0.184339     0.563311     0.486724  Biso 1.000000     H
    H   1.0     0.684337     0.563309     0.486720  Biso 1.000000     H
    H   1.0     0.067493     0.639058     0.514531  Biso 1.000000     H
    H   1.0     0.567493     0.639056     0.514526  Biso 1.000000     H
    H   1.0     0.058486     0.534357     0.378389  Biso 1.000000     H
    H   1.0     0.558484     0.534353     0.378385  Biso 1.000000     H
    H   1.0     0.078152     0.420762     0.405720  Biso 1.000000     H
    H   1.0     0.578148     0.420760     0.405717  Biso 1.000000     H
    H   1.0     0.022448     0.717011     0.064050  Biso 1.000000     H
    H   1.0     0.522455     0.717004     0.064048  Biso 1.000000     H
    H   1.0     0.184704     0.631455     0.112822  Biso 1.000000     H
    H   1.0     0.684714     0.631446     0.112813  Biso 1.000000     H
    H   1.0     0.381122     0.611395     0.721314  Biso 1.000000     H
    H   1.0     0.881113     0.611372     0.721316  Biso 1.000000     H
    H   1.0     0.467258     0.066106     0.293030  Biso 1.000000     H
    H   1.0     0.967229     0.066115     0.293016  Biso 1.000000     H
    H   1.0     0.132720     0.227944     0.500648  Biso 1.000000     H
    H   1.0     0.632725     0.227964     0.500661  Biso 1.000000     H
    H   1.0     0.384129     0.935722     0.048544  Biso 1.000000     H
    H   1.0     0.884130     0.935677     0.048508  Biso 1.000000     H
    H   1.0     0.270449     0.275591     0.418908  Biso 1.000000     H
    H   1.0     0.770445     0.275618     0.418919  Biso 1.000000     H
    H   1.0     0.316362     0.063632     0.985561  Biso 1.000000     H
    H   1.0     0.816377     0.063706     0.985626  Biso 1.000000     H
    H   1.0     0.433253     0.139251     0.014205  Biso 1.000000     H
    H   1.0     0.933294     0.139275     0.014293  Biso 1.000000     H
    H   1.0     0.443597     0.034429     0.878046  Biso 1.000000     H
    H   1.0     0.943586     0.034557     0.878093  Biso 1.000000     H
    H   1.0     0.422761     0.921029     0.905381  Biso 1.000000     H
    H   1.0     0.922735     0.921117     0.905377  Biso 1.000000     H
    H   1.0     0.478692     0.216116     0.564196  Biso 1.000000     H
    H   1.0     0.978701     0.216100     0.564186  Biso 1.000000     H
    H   1.0     0.316585     0.130186     0.613114  Biso 1.000000     H
    H   1.0     0.816598     0.130172     0.613109  Biso 1.000000     H
    H   1.0     0.115647     0.115622     0.220841  Biso 1.000000     H
    H   1.0     0.615661     0.115620     0.220854  Biso 1.000000     H
    H   1.0     0.469934     0.437693     0.206854  Biso 1.000000     H
    H   1.0     0.969940     0.437711     0.206850  Biso 1.000000     H
    H   1.0     0.131269     0.270028    -0.001020  Biso 1.000000     H
    H   1.0     0.631271     0.270041    -0.001016  Biso 1.000000     H
    H   1.0     0.385378     0.564430     0.450645  Biso 1.000000     H
    H   1.0     0.885376     0.564433     0.450647  Biso 1.000000     H
    H   1.0     0.269283     0.222882     0.080495  Biso 1.000000     H
    H   1.0     0.769279     0.222885     0.080500  Biso 1.000000     H
    H   1.0     0.315662     0.436665     0.513327  Biso 1.000000     H
    H   1.0     0.815662     0.436669     0.513331  Biso 1.000000     H
    H   1.0     0.432507     0.360915     0.485521  Biso 1.000000     H
    H   1.0     0.932506     0.360920     0.485524  Biso 1.000000     H
    H   1.0     0.441517     0.465621     0.621662  Biso 1.000000     H
    H   1.0     0.941515     0.465621     0.621666  Biso 1.000000     H
    H   1.0     0.421852     0.579214     0.594329  Biso 1.000000     H
    H   1.0     0.921850     0.579217     0.594335  Biso 1.000000     H
    H   1.0     0.477534     0.282958     0.936000  Biso 1.000000     H
    H   1.0     0.977546     0.282954     0.935997  Biso 1.000000     H
    H   1.0     0.315279     0.368517     0.887233  Biso 1.000000     H
    H   1.0     0.815289     0.368508     0.887226  Biso 1.000000     H
    H   1.0     0.118886     0.388595     0.278731  Biso 1.000000     H
    H   1.0     0.618865     0.388572     0.278735  Biso 1.000000     H
    C   1.0     0.466127     0.889371     0.675890  Biso 1.000000     C
    C   1.0     0.966141     0.889362     0.675900  Biso 1.000000     C
    C   1.0     0.376084     0.797636     0.561189  Biso 1.000000     C
    C   1.0     0.876088     0.797643     0.561196  Biso 1.000000     C
    C   1.0     0.204406     0.968782     0.502911  Biso 1.000000     C
    C   1.0     0.704397     0.968780     0.502906  Biso 1.000000     C
    C   1.0     0.047395     0.886952     0.549662  Biso 1.000000     C
    C   1.0     0.547384     0.886949     0.549653  Biso 1.000000     C
    C   1.0     0.078967     0.987450     0.936240  Biso 1.000000     C
    C   1.0     0.578951     0.987397     0.936211  Biso 1.000000     C
    C   1.0     0.298148     0.771026     0.606373  Biso 1.000000     C
    C   1.0     0.798151     0.771033     0.606379  Biso 1.000000     C
    C   1.0     0.097501     0.939969     0.002856  Biso 1.000000     C
    C   1.0     0.597527     0.939994     0.002865  Biso 1.000000     C
    C   1.0     0.041650     0.001769     0.075876  Biso 1.000000     C
    C   1.0     0.541666     0.001834     0.075869  Biso 1.000000     C
    C   1.0     0.067897     0.846204     0.472218  Biso 1.000000     C
    C   1.0     0.567897     0.846194     0.472211  Biso 1.000000     C
    C   1.0     0.463878     0.858464     0.595518  Biso 1.000000     C
    C   1.0     0.963883     0.858467     0.595528  Biso 1.000000     C
    C   1.0     0.136698     0.925642     0.864119  Biso 1.000000     C
    C   1.0     0.636689     0.925492     0.864125  Biso 1.000000     C
    C   1.0     0.155745     0.891851     0.445912  Biso 1.000000     C
    C   1.0     0.655745     0.891842     0.445907  Biso 1.000000     C
    C   1.0     0.384581     0.860405     0.717159  Biso 1.000000     C
    C   1.0     0.884595     0.860392     0.717166  Biso 1.000000     C
    C   1.0     0.464329     0.608085     0.824443  Biso 1.000000     C
    C   1.0     0.964326     0.608078     0.824445  Biso 1.000000     C
    C   1.0     0.376588     0.702906     0.939242  Biso 1.000000     C
    C   1.0     0.876590     0.702918     0.939244  Biso 1.000000     C
    C   1.0     0.204493     0.531236     0.997157  Biso 1.000000     C
    C   1.0     0.704496     0.531229     0.997148  Biso 1.000000     C
    C   1.0     0.047302     0.612735     0.950539  Biso 1.000000     C
    C   1.0     0.547300     0.612727     0.950535  Biso 1.000000     C
    C   1.0     0.078046     0.512471     0.564369  Biso 1.000000     C
    C   1.0     0.578035     0.512464     0.564369  Biso 1.000000     C
    C   1.0     0.298459     0.729287     0.894166  Biso 1.000000     C
    C   1.0     0.798457     0.729285     0.894167  Biso 1.000000     C
    C   1.0     0.097967     0.559705     0.497748  Biso 1.000000     C
    C   1.0     0.597966     0.559703     0.497752  Biso 1.000000     C
    C   1.0     0.042846     0.497973     0.424386  Biso 1.000000     C
    C   1.0     0.542850     0.497975     0.424387  Biso 1.000000     C
    C   1.0     0.068581     0.654269     0.027761  Biso 1.000000     C
    C   1.0     0.568583     0.654261     0.027756  Biso 1.000000     C
    C   1.0     0.463433     0.640773     0.904816  Biso 1.000000     C
    C   1.0     0.963428     0.640775     0.904818  Biso 1.000000     C
    C   1.0     0.134804     0.574173     0.636987  Biso 1.000000     C
    C   1.0     0.634801     0.574174     0.636979  Biso 1.000000     C
    C   1.0     0.156510     0.608811     0.053990  Biso 1.000000     C
    C   1.0     0.656515     0.608803     0.053983  Biso 1.000000     C
    C   1.0     0.382581     0.636840     0.783321  Biso 1.000000     C
    C   1.0     0.882575     0.636825     0.783323  Biso 1.000000     C
    C   1.0     0.033858     0.110603     0.324141  Biso 1.000000     C
    C   1.0     0.533869     0.110606     0.324156  Biso 1.000000     C
    C   1.0     0.123894     0.202337     0.438847  Biso 1.000000     C
    C   1.0     0.623898     0.202350     0.438860  Biso 1.000000     C
    C   1.0     0.295585     0.031196     0.497133  Biso 1.000000     C
    C   1.0     0.795575     0.031194     0.497126  Biso 1.000000     C
    C   1.0     0.452605     0.113025     0.450390  Biso 1.000000     C
    C   1.0     0.952586     0.113027     0.450377  Biso 1.000000     C
    C   1.0     0.421083     0.012544     0.063844  Biso 1.000000     C
    C   1.0     0.921066     0.012507     0.063835  Biso 1.000000     C
    C   1.0     0.201834     0.228947     0.393668  Biso 1.000000     C
    C   1.0     0.701838     0.228963     0.393680  Biso 1.000000     C
    C   1.0     0.402510     0.059961     0.997197  Biso 1.000000     C
    C   1.0     0.902533     0.059992     0.997221  Biso 1.000000     C
    C   1.0     0.458368     0.998124     0.924191  Biso 1.000000     C
    C   1.0     0.958383     0.998193     0.924201  Biso 1.000000     C
    C   1.0     0.432086     0.153780     0.527831  Biso 1.000000     C
    C   1.0     0.932084     0.153772     0.527821  Biso 1.000000     C
    C   1.0     0.036102     0.141509     0.404514  Biso 1.000000     C
    C   1.0     0.536111     0.141514     0.404528  Biso 1.000000     C
    C   1.0     0.363324     0.074414     0.135931  Biso 1.000000     C
    C   1.0     0.863320     0.074308     0.135950  Biso 1.000000     C
    C   1.0     0.344235     0.108133     0.554133  Biso 1.000000     C
    C   1.0     0.844237     0.108124     0.554126  Biso 1.000000     C
    C   1.0     0.115407     0.139573     0.282878  Biso 1.000000     C
    C   1.0     0.615419     0.139574     0.282891  Biso 1.000000     C
    C   1.0     0.035673     0.391891     0.175602  Biso 1.000000     C
    C   1.0     0.535657     0.391876     0.175605  Biso 1.000000     C
    C   1.0     0.123408     0.297051     0.060803  Biso 1.000000     C
    C   1.0     0.623402     0.297055     0.060807  Biso 1.000000     C
    C   1.0     0.295497     0.468735     0.002899  Biso 1.000000     C
    C   1.0     0.795500     0.468728     0.002890  Biso 1.000000     C
    C   1.0     0.452695     0.387240     0.049512  Biso 1.000000     C
    C   1.0     0.952694     0.387235     0.049508  Biso 1.000000     C
    C   1.0     0.421964     0.487507     0.435679  Biso 1.000000     C
    C   1.0     0.921953     0.487507     0.435684  Biso 1.000000     C
    C   1.0     0.201539     0.270679     0.105880  Biso 1.000000     C
    C   1.0     0.701534     0.270683     0.105884  Biso 1.000000     C
    C   1.0     0.402033     0.440268     0.502295  Biso 1.000000     C
    C   1.0     0.902033     0.440274     0.502305  Biso 1.000000     C
    C   1.0     0.457148     0.501999     0.575659  Biso 1.000000     C
    C   1.0     0.957154     0.502005     0.575667  Biso 1.000000     C
    C   1.0     0.431409     0.345702     0.972291  Biso 1.000000     C
    C   1.0     0.931415     0.345696     0.972286  Biso 1.000000     C
    C   1.0     0.036569     0.359193     0.095229  Biso 1.000000     C
    C   1.0     0.536559     0.359193     0.095233  Biso 1.000000     C
    C   1.0     0.365199     0.425802     0.363065  Biso 1.000000     C
    C   1.0     0.865197     0.425805     0.363064  Biso 1.000000     C
    C   1.0     0.343476     0.391159     0.946064  Biso 1.000000     C
    C   1.0     0.843485     0.391152     0.946057  Biso 1.000000     C
    C   1.0     0.117422     0.363141     0.216724  Biso 1.000000     C
    C   1.0     0.617409     0.363129     0.216728  Biso 1.000000     C
    N   1.0     0.301108     0.801752     0.683534  Biso 1.000000     N
    N   1.0     0.801116     0.801749     0.683540  Biso 1.000000     N
    N   1.0     0.300206     0.697019     0.817025  Biso 1.000000     N
    N   1.0     0.800202     0.697006     0.817026  Biso 1.000000     N
    N   1.0     0.198880     0.198223     0.316506  Biso 1.000000     N
    N   1.0     0.698888     0.198231     0.316518  Biso 1.000000     N
    N   1.0     0.199796     0.302962     0.183021  Biso 1.000000     N
    N   1.0     0.699787     0.302954     0.183025  Biso 1.000000     N
    O   1.0     0.217658     0.961246     0.840440  Biso 1.000000     O
    O   1.0     0.717737     0.960980     0.840462  Biso 1.000000     O
    O   1.0     0.096923     0.834720     0.831753  Biso 1.000000     O
    O   1.0     0.596859     0.834597     0.831767  Biso 1.000000     O
    O   1.0     0.213386     0.537390     0.662416  Biso 1.000000     O
    O   1.0     0.713385     0.537393     0.662410  Biso 1.000000     O
    O   1.0     0.096826     0.666145     0.667982  Biso 1.000000     O
    O   1.0     0.596827     0.666147     0.667970  Biso 1.000000     O
    O   1.0     0.282305     0.038872     0.159588  Biso 1.000000     O
    O   1.0     0.782364     0.038689     0.159621  Biso 1.000000     O
    O   1.0     0.403113     0.165329     0.168285  Biso 1.000000     O
    O   1.0     0.903072     0.165242     0.168307  Biso 1.000000     O
    O   1.0     0.286623     0.462587     0.337630  Biso 1.000000     O
    O   1.0     0.786621     0.462590     0.337629  Biso 1.000000     O
    O   1.0     0.403170     0.333826     0.332075  Biso 1.000000     O
    O   1.0     0.903173     0.333832     0.332071  Biso 1.000000     O
    S   1.0     0.139371     0.983321     0.589645  Biso 1.000000     S
    S   1.0     0.639353     0.983325     0.589637  Biso 1.000000     S
    S   1.0     0.138747     0.515895     0.910637  Biso 1.000000     S
    S   1.0     0.638746     0.515888     0.910629  Biso 1.000000     S
    S   1.0     0.360634     0.016651     0.410403  Biso 1.000000     S
    S   1.0     0.860610     0.016657     0.410393  Biso 1.000000     S
    S   1.0     0.361247     0.484077     0.089417  Biso 1.000000     S
    S   1.0     0.861248     0.484074     0.089410  Biso 1.000000     S
   Zn   1.0     0.189749     0.749782     0.750210  Biso 1.000000    Zn
   Zn   1.0     0.689752     0.749767     0.750209  Biso 1.000000    Zn
   Zn   1.0     0.310248     0.250205     0.249835  Biso 1.000000    Zn
   Zn   1.0     0.810250     0.250200     0.249838  Biso 1.000000    Zn
