#======================================================================

# CRYSTAL DATA

#----------------------------------------------------------------------

data_VESTA_phase_1


_pd_phase_name                         MOF
_cell_length_a                         15.28000
_cell_length_b                         23.94300
_cell_length_c                         17.18100
_cell_angle_alpha                      83.55800
_cell_angle_beta                       86.84100
_cell_angle_gamma                      87.76400
_symmetry_space_group_name_H-M         "P 1"
_symmetry_Int_Tables_number            1

loop_
_symmetry_equiv_pos_as_xyz
   "x, y, z"

loop_
   _atom_site_label
   _atom_site_occupancy
   _atom_site_fract_x
   _atom_site_fract_y
   _atom_site_fract_z
   _atom_site_adp_type
   _atom_site_B_iso_or_equiv
   _atom_site_type_symbol
    H   1.0     0.101400     0.411537     0.777599  Biso 1.000000     H
    H   1.0     0.102086     0.911557     0.777741  Biso 1.000000     H
    H   1.0     0.601391     0.411537     0.777601  Biso 1.000000     H
    H   1.0     0.602077     0.911557     0.777742  Biso 1.000000     H
    H   1.0     0.306756     0.258864     0.785154  Biso 1.000000     H
    H   1.0     0.306889     0.759301     0.784938  Biso 1.000000     H
    H   1.0     0.806749     0.258864     0.785152  Biso 1.000000     H
    H   1.0     0.806882     0.759301     0.784939  Biso 1.000000     H
    H   1.0     0.013167     0.282441     0.918906  Biso 1.000000     H
    H   1.0     0.013238     0.782211     0.918999  Biso 1.000000     H
    H   1.0     0.513162     0.282443     0.918908  Biso 1.000000     H
    H   1.0     0.513229     0.782211     0.919000  Biso 1.000000     H
    H   1.0     0.415067     0.448431     0.830165  Biso 1.000000     H
    H   1.0     0.416284     0.948439     0.830071  Biso 1.000000     H
    H   1.0     0.915068     0.448432     0.830162  Biso 1.000000     H
    H   1.0     0.916280     0.948440     0.830070  Biso 1.000000     H
    H   1.0     0.033206     0.316972     0.047546  Biso 1.000000     H
    H   1.0     0.033241     0.816678     0.047691  Biso 1.000000     H
    H   1.0     0.533201     0.316975     0.047546  Biso 1.000000     H
    H   1.0     0.533231     0.816677     0.047692  Biso 1.000000     H
    H   1.0     0.491955     0.415777     0.067863  Biso 1.000000     H
    H   1.0     0.492549     0.915567     0.067927  Biso 1.000000     H
    H   1.0     0.991947     0.415775     0.067864  Biso 1.000000     H
    H   1.0     0.992541     0.915567     0.067926  Biso 1.000000     H
    H   1.0     0.451871     0.101481     0.791892  Biso 1.000000     H
    H   1.0     0.450841     0.601487     0.791753  Biso 1.000000     H
    H   1.0     0.951864     0.101481     0.791891  Biso 1.000000     H
    H   1.0     0.950834     0.601487     0.791752  Biso 1.000000     H
    H   1.0     0.310195     0.154711     0.793858  Biso 1.000000     H
    H   1.0     0.309535     0.655159     0.793631  Biso 1.000000     H
    H   1.0     0.810187     0.154711     0.793858  Biso 1.000000     H
    H   1.0     0.809528     0.655158     0.793633  Biso 1.000000     H
    H   1.0     0.480225     0.320347     0.609853  Biso 1.000000     H
    H   1.0     0.481763     0.819902     0.610019  Biso 1.000000     H
    H   1.0     0.980216     0.320347     0.609853  Biso 1.000000     H
    H   1.0     0.981754     0.819902     0.610019  Biso 1.000000     H
    H   1.0     0.335062     0.355304     0.680130  Biso 1.000000     H
    H   1.0     0.336156     0.855524     0.679787  Biso 1.000000     H
    H   1.0     0.835054     0.355304     0.680130  Biso 1.000000     H
    H   1.0     0.836147     0.855524     0.679788  Biso 1.000000     H
    H   1.0     0.291793     0.354693     0.779775  Biso 1.000000     H
    H   1.0     0.292632     0.855222     0.779312  Biso 1.000000     H
    H   1.0     0.791786     0.354693     0.779775  Biso 1.000000     H
    H   1.0     0.792625     0.855222     0.779312  Biso 1.000000     H
    H   1.0     0.346949     0.414359     0.732935  Biso 1.000000     H
    H   1.0     0.348392     0.914632     0.732432  Biso 1.000000     H
    H   1.0     0.846942     0.414359     0.732936  Biso 1.000000     H
    H   1.0     0.848385     0.914632     0.732433  Biso 1.000000     H
    H   1.0     0.090695     0.255782     0.770895  Biso 1.000000     H
    H   1.0     0.090849     0.755323     0.770928  Biso 1.000000     H
    H   1.0     0.590686     0.255782     0.770896  Biso 1.000000     H
    H   1.0     0.590840     0.755322     0.770928  Biso 1.000000     H
    H   1.0     0.209221     0.447451     0.674253  Biso 1.000000     H
    H   1.0     0.210169     0.947360     0.674577  Biso 1.000000     H
    H   1.0     0.709213     0.447451     0.674255  Biso 1.000000     H
    H   1.0     0.710161     0.947360     0.674579  Biso 1.000000     H
    H   1.0     0.433332     0.481134     0.958779  Biso 1.000000     H
    H   1.0     0.434496     0.981073     0.958724  Biso 1.000000     H
    H   1.0     0.933332     0.481134     0.958777  Biso 1.000000     H
    H   1.0     0.934489     0.981073     0.958724  Biso 1.000000     H
    H   1.0     0.092199     0.151114     0.780850  Biso 1.000000     H
    H   1.0     0.091557     0.650667     0.780866  Biso 1.000000     H
    H   1.0     0.592190     0.151114     0.780852  Biso 1.000000     H
    H   1.0     0.591548     0.650667     0.780868  Biso 1.000000     H
    H   1.0     0.090562     0.356081     0.507222  Biso 1.000000     H
    H   1.0     0.092352     0.855555     0.507561  Biso 1.000000     H
    H   1.0     0.590556     0.356080     0.507223  Biso 1.000000     H
    H   1.0     0.592347     0.855555     0.507562  Biso 1.000000     H
    H   1.0     0.206393     0.419133     0.539457  Biso 1.000000     H
    H   1.0     0.207885     0.918807     0.539888  Biso 1.000000     H
    H   1.0     0.706387     0.419132     0.539459  Biso 1.000000     H
    H   1.0     0.707878     0.918807     0.539890  Biso 1.000000     H
    H   1.0     0.399056     0.088502     0.222496  Biso 1.000000     H
    H   1.0     0.398712     0.588499     0.222429  Biso 1.000000     H
    H   1.0     0.899047     0.088502     0.222496  Biso 1.000000     H
    H   1.0     0.898704     0.588498     0.222430  Biso 1.000000     H
    H   1.0     0.193827     0.241025     0.215424  Biso 1.000000     H
    H   1.0     0.193480     0.741062     0.214833  Biso 1.000000     H
    H   1.0     0.693819     0.241025     0.215424  Biso 1.000000     H
    H   1.0     0.693473     0.741062     0.214833  Biso 1.000000     H
    H   1.0     0.487032     0.217582     0.081345  Biso 1.000000     H
    H   1.0     0.486812     0.717575     0.081154  Biso 1.000000     H
    H   1.0     0.987024     0.217582     0.081344  Biso 1.000000     H
    H   1.0     0.986805     0.717576     0.081154  Biso 1.000000     H
    H   1.0     0.085564     0.051658     0.169940  Biso 1.000000     H
    H   1.0     0.085081     0.551618     0.169855  Biso 1.000000     H
    H   1.0     0.585560     0.051659     0.169939  Biso 1.000000     H
    H   1.0     0.585077     0.551618     0.169854  Biso 1.000000     H
    H   1.0     0.466940     0.183049     0.952719  Biso 1.000000     H
    H   1.0     0.466719     0.683030     0.952533  Biso 1.000000     H
    H   1.0     0.966932     0.183048     0.952719  Biso 1.000000     H
    H   1.0     0.966711     0.683031     0.952533  Biso 1.000000     H
    H   1.0     0.008363     0.084288     0.932334  Biso 1.000000     H
    H   1.0     0.008029     0.584240     0.932203  Biso 1.000000     H
    H   1.0     0.508354     0.084288     0.932335  Biso 1.000000     H
    H   1.0     0.508022     0.584239     0.932203  Biso 1.000000     H
    H   1.0     0.049056     0.398557     0.208290  Biso 1.000000     H
    H   1.0     0.048642     0.898552     0.208134  Biso 1.000000     H
    H   1.0     0.549048     0.398558     0.208290  Biso 1.000000     H
    H   1.0     0.548635     0.898552     0.208133  Biso 1.000000     H
    H   1.0     0.190633     0.345179     0.206704  Biso 1.000000     H
    H   1.0     0.190259     0.845214     0.206097  Biso 1.000000     H
    H   1.0     0.690626     0.345179     0.206704  Biso 1.000000     H
    H   1.0     0.690251     0.845214     0.206097  Biso 1.000000     H
    H   1.0     0.019888     0.179855     0.390262  Biso 1.000000     H
    H   1.0     0.019781     0.679765     0.390154  Biso 1.000000     H
    H   1.0     0.519879     0.179855     0.390262  Biso 1.000000     H
    H   1.0     0.519774     0.679763     0.390154  Biso 1.000000     H
    H   1.0     0.165196     0.144725     0.320191  Biso 1.000000     H
    H   1.0     0.165012     0.644709     0.319916  Biso 1.000000     H
    H   1.0     0.665189     0.144725     0.320192  Biso 1.000000     H
    H   1.0     0.665005     0.644709     0.319917  Biso 1.000000     H
    H   1.0     0.208567     0.145006     0.220625  Biso 1.000000     H
    H   1.0     0.208284     0.645237     0.220282  Biso 1.000000     H
    H   1.0     0.708560     0.145006     0.220626  Biso 1.000000     H
    H   1.0     0.708277     0.645237     0.220283  Biso 1.000000     H
    H   1.0     0.153038     0.085553     0.267682  Biso 1.000000     H
    H   1.0     0.153029     0.585629     0.267185  Biso 1.000000     H
    H   1.0     0.653031     0.085553     0.267682  Biso 1.000000     H
    H   1.0     0.653022     0.585629     0.267186  Biso 1.000000     H
    H   1.0     0.409876     0.244413     0.228901  Biso 1.000000     H
    H   1.0     0.409536     0.744372     0.229140  Biso 1.000000     H
    H   1.0     0.909867     0.244412     0.228901  Biso 1.000000     H
    H   1.0     0.909527     0.744373     0.229139  Biso 1.000000     H
    H   1.0     0.291244     0.052529     0.325798  Biso 1.000000     H
    H   1.0     0.290893     0.552575     0.325770  Biso 1.000000     H
    H   1.0     0.791237     0.052529     0.325799  Biso 1.000000     H
    H   1.0     0.790886     0.552574     0.325773  Biso 1.000000     H
    H   1.0     0.067236     0.018960     0.041353  Biso 1.000000     H
    H   1.0     0.066753     0.518902     0.041262  Biso 1.000000     H
    H   1.0     0.567231     0.018961     0.041352  Biso 1.000000     H
    H   1.0     0.566748     0.518902     0.041262  Biso 1.000000     H
    H   1.0     0.408625     0.349077     0.218926  Biso 1.000000     H
    H   1.0     0.408251     0.849043     0.219171  Biso 1.000000     H
    H   1.0     0.908616     0.349077     0.218927  Biso 1.000000     H
    H   1.0     0.908243     0.849044     0.219171  Biso 1.000000     H
    H   1.0     0.409554     0.144044     0.492860  Biso 1.000000     H
    H   1.0     0.409452     0.644012     0.492784  Biso 1.000000     H
    H   1.0     0.909547     0.144045     0.492860  Biso 1.000000     H
    H   1.0     0.909445     0.644013     0.492784  Biso 1.000000     H
    H   1.0     0.293916     0.080859     0.460588  Biso 1.000000     H
    H   1.0     0.293680     0.580914     0.460559  Biso 1.000000     H
    H   1.0     0.793909     0.080859     0.460589  Biso 1.000000     H
    H   1.0     0.793673     0.580915     0.460561  Biso 1.000000     H
    C   1.0     0.064677     0.027351     0.532932  Biso 1.000000     C
    C   1.0     0.061920     0.528313     0.532998  Biso 1.000000     C
    C   1.0     0.564662     0.027361     0.532928  Biso 1.000000     C
    C   1.0     0.561912     0.528314     0.532997  Biso 1.000000     C
    C   1.0     0.279173     0.276284     0.059072  Biso 1.000000     C
    C   1.0     0.279266     0.776254     0.058968  Biso 1.000000     C
    C   1.0     0.779158     0.276283     0.059076  Biso 1.000000     C
    C   1.0     0.779268     0.776255     0.058963  Biso 1.000000     C
    C   1.0     0.247910     0.312426     0.995443  Biso 1.000000     C
    C   1.0     0.248175     0.812413     0.995283  Biso 1.000000     C
    C   1.0     0.747909     0.312426     0.995443  Biso 1.000000     C
    C   1.0     0.748149     0.812414     0.995290  Biso 1.000000     C
    C   1.0     0.479230     0.024182     0.664082  Biso 1.000000     C
    C   1.0     0.476573     0.523808     0.664244  Biso 1.000000     C
    C   1.0     0.979223     0.024180     0.664082  Biso 1.000000     C
    C   1.0     0.976565     0.523804     0.664245  Biso 1.000000     C
    C   1.0     0.489814     0.013354     0.581609  Biso 1.000000     C
    C   1.0     0.487597     0.513128     0.581705  Biso 1.000000     C
    C   1.0     0.989801     0.013361     0.581606  Biso 1.000000     C
    C   1.0     0.987588     0.513128     0.581705  Biso 1.000000     C
    C   1.0     0.225470     0.410102     0.925434  Biso 1.000000     C
    C   1.0     0.226664     0.910083     0.924989  Biso 1.000000     C
    C   1.0     0.725465     0.410101     0.925433  Biso 1.000000     C
    C   1.0     0.726659     0.910084     0.924989  Biso 1.000000     C
    C   1.0     0.260078     0.402015     0.056929  Biso 1.000000     C
    C   1.0     0.260780     0.902024     0.056612  Biso 1.000000     C
    C   1.0     0.760064     0.402015     0.056931  Biso 1.000000     C
    C   1.0     0.760771     0.902023     0.056615  Biso 1.000000     C
    C   1.0     0.219662     0.282013     0.936449  Biso 1.000000     C
    C   1.0     0.219756     0.782015     0.936342  Biso 1.000000     C
    C   1.0     0.719641     0.282011     0.936455  Biso 1.000000     C
    C   1.0     0.719760     0.782015     0.936337  Biso 1.000000     C
    C   1.0     0.244394     0.373592     0.992361  Biso 1.000000     C
    C   1.0     0.244998     0.873584     0.992081  Biso 1.000000     C
    C   1.0     0.744388     0.373591     0.992360  Biso 1.000000     C
    C   1.0     0.744993     0.873586     0.992080  Biso 1.000000     C
    C   1.0     0.051583     0.030844     0.708548  Biso 1.000000     C
    C   1.0     0.048778     0.530459     0.708902  Biso 1.000000     C
    C   1.0     0.551576     0.030844     0.708546  Biso 1.000000     C
    C   1.0     0.548770     0.530460     0.708901  Biso 1.000000     C
    C   1.0     0.397331     0.024001     0.704714  Biso 1.000000     C
    C   1.0     0.394494     0.523665     0.704573  Biso 1.000000     C
    C   1.0     0.897324     0.024002     0.704715  Biso 1.000000     C
    C   1.0     0.894485     0.523668     0.704572  Biso 1.000000     C
    C   1.0     0.426415     0.484677     0.543719  Biso 1.000000     C
    C   1.0     0.427544     0.985811     0.543632  Biso 1.000000     C
    C   1.0     0.926408     0.484675     0.543719  Biso 1.000000     C
    C   1.0     0.927543     0.985802     0.543637  Biso 1.000000     C
    C   1.0     0.438074     0.471676     0.467011  Biso 1.000000     C
    C   1.0     0.438818     0.972745     0.466943  Biso 1.000000     C
    C   1.0     0.938063     0.471679     0.467009  Biso 1.000000     C
    C   1.0     0.938803     0.972753     0.466939  Biso 1.000000     C
    C   1.0     0.220864     0.223735     0.941028  Biso 1.000000     C
    C   1.0     0.220882     0.723740     0.940946  Biso 1.000000     C
    C   1.0     0.720869     0.223735     0.941024  Biso 1.000000     C
    C   1.0     0.720855     0.723741     0.940955  Biso 1.000000     C
    C   1.0     0.252179     0.187606     0.004643  Biso 1.000000     C
    C   1.0     0.252108     0.687584     0.004572  Biso 1.000000     C
    C   1.0     0.752162     0.187606     0.004650  Biso 1.000000     C
    C   1.0     0.752116     0.687585     0.004566  Biso 1.000000     C
    C   1.0     0.023422     0.476197     0.335764  Biso 1.000000     C
    C   1.0     0.023986     0.976086     0.335670  Biso 1.000000     C
    C   1.0     0.523414     0.476193     0.335765  Biso 1.000000     C
    C   1.0     0.523977     0.976084     0.335671  Biso 1.000000     C
    C   1.0     0.012391     0.486871     0.418303  Biso 1.000000     C
    C   1.0     0.013591     0.986838     0.418198  Biso 1.000000     C
    C   1.0     0.512382     0.486871     0.418302  Biso 1.000000     C
    C   1.0     0.513578     0.986846     0.418195  Biso 1.000000     C
    C   1.0     0.274818     0.089965     0.074726  Biso 1.000000     C
    C   1.0     0.274535     0.589908     0.074571  Biso 1.000000     C
    C   1.0     0.774813     0.089964     0.074725  Biso 1.000000     C
    C   1.0     0.774527     0.589909     0.074571  Biso 1.000000     C
    C   1.0     0.240803     0.097991     0.943118  Biso 1.000000     C
    C   1.0     0.239931     0.598003     0.943071  Biso 1.000000     C
    C   1.0     0.740793     0.097989     0.943120  Biso 1.000000     C
    C   1.0     0.739924     0.598004     0.943071  Biso 1.000000     C
    C   1.0     0.280374     0.218018     0.063648  Biso 1.000000     C
    C   1.0     0.280397     0.717982     0.063562  Biso 1.000000     C
    C   1.0     0.780371     0.218016     0.063648  Biso 1.000000     C
    C   1.0     0.780372     0.717982     0.063569  Biso 1.000000     C
    C   1.0     0.255922     0.126450     0.007770  Biso 1.000000     C
    C   1.0     0.255612     0.626422     0.007646  Biso 1.000000     C
    C   1.0     0.755917     0.126450     0.007770  Biso 1.000000     C
    C   1.0     0.755600     0.626422     0.007647  Biso 1.000000     C
    C   1.0     0.451215     0.469545     0.291108  Biso 1.000000     C
    C   1.0     0.451572     0.969553     0.291191  Biso 1.000000     C
    C   1.0     0.951205     0.469545     0.291111  Biso 1.000000     C
    C   1.0     0.951563     0.969551     0.291194  Biso 1.000000     C
    C   1.0     0.105500     0.476337     0.295436  Biso 1.000000     C
    C   1.0     0.105889     0.976035     0.295034  Biso 1.000000     C
    C   1.0     0.605493     0.476340     0.295438  Biso 1.000000     C
    C   1.0     0.605881     0.976036     0.295035  Biso 1.000000     C
    C   1.0     0.075925     0.014306     0.456220  Biso 1.000000     C
    C   1.0     0.073575     0.515317     0.456289  Biso 1.000000     C
    C   1.0     0.575923     0.014299     0.456225  Biso 1.000000     C
    C   1.0     0.573568     0.515316     0.456289  Biso 1.000000     C
    C   1.0     0.098597     0.398829     0.718885  Biso 1.000000     C
    C   1.0     0.099513     0.898727     0.719074  Biso 1.000000     C
    C   1.0     0.598588     0.398830     0.718886  Biso 1.000000     C
    C   1.0     0.599505     0.898728     0.719075  Biso 1.000000     C
    C   1.0     0.369492     0.235771     0.784161  Biso 1.000000     C
    C   1.0     0.369460     0.736014     0.783984  Biso 1.000000     C
    C   1.0     0.869485     0.235771     0.784161  Biso 1.000000     C
    C   1.0     0.869453     0.736014     0.783986  Biso 1.000000     C
    C   1.0     0.448688     0.264244     0.777860  Biso 1.000000     C
    C   1.0     0.448889     0.764232     0.777749  Biso 1.000000     C
    C   1.0     0.948681     0.264243     0.777859  Biso 1.000000     C
    C   1.0     0.948882     0.764232     0.777749  Biso 1.000000     C
    C   1.0     0.033425     0.363609     0.700622  Biso 1.000000     C
    C   1.0     0.034507     0.863401     0.700764  Biso 1.000000     C
    C   1.0     0.533417     0.363609     0.700623  Biso 1.000000     C
    C   1.0     0.534500     0.863400     0.700765  Biso 1.000000     C
    C   1.0     0.463995     0.363130     0.865564  Biso 1.000000     C
    C   1.0     0.464656     0.863022     0.865558  Biso 1.000000     C
    C   1.0     0.963991     0.363130     0.865562  Biso 1.000000     C
    C   1.0     0.964651     0.863023     0.865558  Biso 1.000000     C
    C   1.0     0.496480     0.326057     0.927329  Biso 1.000000     C
    C   1.0     0.496789     0.825859     0.927394  Biso 1.000000     C
    C   1.0     0.996470     0.326055     0.927328  Biso 1.000000     C
    C   1.0     0.996781     0.825860     0.927393  Biso 1.000000     C
    C   1.0     0.442047     0.419367     0.876778  Biso 1.000000     C
    C   1.0     0.443022     0.919305     0.876730  Biso 1.000000     C
    C   1.0     0.942041     0.419366     0.876777  Biso 1.000000     C
    C   1.0     0.943013     0.919305     0.876730  Biso 1.000000     C
    C   1.0     0.007393     0.345402     0.999615  Biso 1.000000     C
    C   1.0     0.007686     0.845171     0.999704  Biso 1.000000     C
    C   1.0     0.507386     0.345404     0.999615  Biso 1.000000     C
    C   1.0     0.507679     0.845171     0.999704  Biso 1.000000     C
    C   1.0     0.485200     0.401178     0.000000  Biso 1.000000     C
    C   1.0     0.485809     0.900994     0.000000  Biso 1.000000     C
    C   1.0     0.985193     0.401176     0.000000  Biso 1.000000     C
    C   1.0     0.985805     0.900994     0.000000  Biso 1.000000     C
    C   1.0     0.451260     0.147158     0.787815  Biso 1.000000     C
    C   1.0     0.450562     0.647157     0.787689  Biso 1.000000     C
    C   1.0     0.951252     0.147158     0.787814  Biso 1.000000     C
    C   1.0     0.950555     0.647157     0.787689  Biso 1.000000     C
    C   1.0     0.371139     0.177195     0.788860  Biso 1.000000     C
    C   1.0     0.370662     0.677443     0.788677  Biso 1.000000     C
    C   1.0     0.871131     0.177194     0.788859  Biso 1.000000     C
    C   1.0     0.870655     0.677443     0.788677  Biso 1.000000     C
    C   1.0     0.030717     0.347957     0.624204  Biso 1.000000     C
    C   1.0     0.032122     0.847597     0.624400  Biso 1.000000     C
    C   1.0     0.530709     0.347957     0.624205  Biso 1.000000     C
    C   1.0     0.532114     0.847597     0.624400  Biso 1.000000     C
    C   1.0     0.345538     0.368323     0.737984  Biso 1.000000     C
    C   1.0     0.346599     0.868606     0.737613  Biso 1.000000     C
    C   1.0     0.845530     0.368323     0.737983  Biso 1.000000     C
    C   1.0     0.846591     0.868605     0.737613  Biso 1.000000     C
    C   1.0     0.029239     0.233773     0.776169  Biso 1.000000     C
    C   1.0     0.029217     0.733511     0.776134  Biso 1.000000     C
    C   1.0     0.529230     0.233773     0.776170  Biso 1.000000     C
    C   1.0     0.529209     0.733511     0.776135  Biso 1.000000     C
    C   1.0     0.160406     0.418672     0.660381  Biso 1.000000     C
    C   1.0     0.161491     0.918500     0.660679  Biso 1.000000     C
    C   1.0     0.660398     0.418671     0.660383  Biso 1.000000     C
    C   1.0     0.661484     0.918499     0.660681  Biso 1.000000     C
    C   1.0     0.452587     0.437994     0.949532  Biso 1.000000     C
    C   1.0     0.453532     0.937894     0.949512  Biso 1.000000     C
    C   1.0     0.952585     0.437994     0.949531  Biso 1.000000     C
    C   1.0     0.953525     0.937894     0.949512  Biso 1.000000     C
    C   1.0     0.030237     0.175200     0.781485  Biso 1.000000     C
    C   1.0     0.029769     0.674945     0.781441  Biso 1.000000     C
    C   1.0     0.530228     0.175200     0.781486  Biso 1.000000     C
    C   1.0     0.529760     0.674945     0.781441  Biso 1.000000     C
    C   1.0     0.093103     0.367711     0.566576  Biso 1.000000     C
    C   1.0     0.094660     0.867297     0.566877  Biso 1.000000     C
    C   1.0     0.593097     0.367710     0.566577  Biso 1.000000     C
    C   1.0     0.594654     0.867297     0.566878  Biso 1.000000     C
    C   1.0     0.158011     0.403159     0.584670  Biso 1.000000     C
    C   1.0     0.159408     0.902842     0.585024  Biso 1.000000     C
    C   1.0     0.658004     0.403159     0.584672  Biso 1.000000     C
    C   1.0     0.659400     0.902842     0.585026  Biso 1.000000     C
    C   1.0     0.401775     0.101237     0.281203  Biso 1.000000     C
    C   1.0     0.401494     0.601219     0.281139  Biso 1.000000     C
    C   1.0     0.901767     0.101237     0.281204  Biso 1.000000     C
    C   1.0     0.901485     0.601220     0.281139  Biso 1.000000     C
    C   1.0     0.131144     0.264186     0.216254  Biso 1.000000     C
    C   1.0     0.130789     0.764205     0.215836  Biso 1.000000     C
    C   1.0     0.631136     0.264186     0.216255  Biso 1.000000     C
    C   1.0     0.630782     0.764205     0.215836  Biso 1.000000     C
    C   1.0     0.051878     0.235799     0.222339  Biso 1.000000     C
    C   1.0     0.051533     0.735796     0.222164  Biso 1.000000     C
    C   1.0     0.551871     0.235799     0.222337  Biso 1.000000     C
    C   1.0     0.551526     0.735796     0.222164  Biso 1.000000     C
    C   1.0     0.466854     0.136511     0.299493  Biso 1.000000     C
    C   1.0     0.466633     0.636467     0.299396  Biso 1.000000     C
    C   1.0     0.966845     0.136512     0.299492  Biso 1.000000     C
    C   1.0     0.966625     0.636467     0.299396  Biso 1.000000     C
    C   1.0     0.036427     0.136928     0.134622  Biso 1.000000     C
    C   1.0     0.036079     0.636906     0.134476  Biso 1.000000     C
    C   1.0     0.536422     0.136928     0.134620  Biso 1.000000     C
    C   1.0     0.536072     0.636906     0.134476  Biso 1.000000     C
    C   1.0     0.003804     0.173982     0.072897  Biso 1.000000     C
    C   1.0     0.003532     0.673967     0.072727  Biso 1.000000     C
    C   1.0     0.503796     0.173983     0.072898  Biso 1.000000     C
    C   1.0     0.503524     0.673966     0.072727  Biso 1.000000     C
    C   1.0     0.058484     0.080713     0.123368  Biso 1.000000     C
    C   1.0     0.058056     0.580674     0.123256  Biso 1.000000     C
    C   1.0     0.558477     0.080713     0.123368  Biso 1.000000     C
    C   1.0     0.558050     0.580674     0.123256  Biso 1.000000     C
    C   1.0     0.492861     0.154636     0.000617  Biso 1.000000     C
    C   1.0     0.492586     0.654612     0.000451  Biso 1.000000     C
    C   1.0     0.992853     0.154636     0.000617  Biso 1.000000     C
    C   1.0     0.992579     0.654612     0.000450  Biso 1.000000     C
    C   1.0     0.015162     0.098882    -0.010577  Biso 1.000000     C
    C   1.0     0.014808     0.598843    -0.010711  Biso 1.000000     C
    C   1.0     0.515155     0.098882    -0.010577  Biso 1.000000     C
    C   1.0     0.514802     0.598843    -0.010711  Biso 1.000000     C
    C   1.0     0.049582     0.352882     0.212371  Biso 1.000000     C
    C   1.0     0.049200     0.852879     0.212203  Biso 1.000000     C
    C   1.0     0.549575     0.352883     0.212370  Biso 1.000000     C
    C   1.0     0.549193     0.852878     0.212203  Biso 1.000000     C
    C   1.0     0.129632     0.322762     0.211549  Biso 1.000000     C
    C   1.0     0.129263     0.822782     0.211125  Biso 1.000000     C
    C   1.0     0.629624     0.322762     0.211550  Biso 1.000000     C
    C   1.0     0.629256     0.822782     0.211124  Biso 1.000000     C
    C   1.0     0.469471     0.152192     0.375905  Biso 1.000000     C
    C   1.0     0.469313     0.652134     0.375808  Biso 1.000000     C
    C   1.0     0.969463     0.152192     0.375905  Biso 1.000000     C
    C   1.0     0.969305     0.652136     0.375807  Biso 1.000000     C
    C   1.0     0.154702     0.131585     0.262409  Biso 1.000000     C
    C   1.0     0.154517     0.631663     0.262082  Biso 1.000000     C
    C   1.0     0.654694     0.131586     0.262410  Biso 1.000000     C
    C   1.0     0.654509     0.631663     0.262082  Biso 1.000000     C
    C   1.0     0.471391     0.266354     0.223798  Biso 1.000000     C
    C   1.0     0.471039     0.766330     0.223860  Biso 1.000000     C
    C   1.0     0.971382     0.266354     0.223797  Biso 1.000000     C
    C   1.0     0.971030     0.766331     0.223861  Biso 1.000000     C
    C   1.0     0.339962     0.081365     0.339680  Biso 1.000000     C
    C   1.0     0.339687     0.581370     0.339640  Biso 1.000000     C
    C   1.0     0.839953     0.081365     0.339680  Biso 1.000000     C
    C   1.0     0.839680     0.581369     0.339642  Biso 1.000000     C
    C   1.0     0.047905     0.062085     0.050619  Biso 1.000000     C
    C   1.0     0.047479     0.562039     0.050512  Biso 1.000000     C
    C   1.0     0.547899     0.062085     0.050618  Biso 1.000000     C
    C   1.0     0.547472     0.562038     0.050513  Biso 1.000000     C
    C   1.0     0.470532     0.324925     0.218475  Biso 1.000000     C
    C   1.0     0.470162     0.824901     0.218545  Biso 1.000000     C
    C   1.0     0.970523     0.324925     0.218475  Biso 1.000000     C
    C   1.0     0.970153     0.824901     0.218545  Biso 1.000000     C
    C   1.0     0.407080     0.132405     0.433504  Biso 1.000000     C
    C   1.0     0.406931     0.632370     0.433435  Biso 1.000000     C
    C   1.0     0.907073     0.132405     0.433504  Biso 1.000000     C
    C   1.0     0.906924     0.632371     0.433435  Biso 1.000000     C
    C   1.0     0.342268     0.096895     0.415388  Biso 1.000000     C
    C   1.0     0.342056     0.596897     0.415345  Biso 1.000000     C
    C   1.0     0.842260     0.096895     0.415388  Biso 1.000000     C
    C   1.0     0.842049     0.596897     0.415347  Biso 1.000000     C
    N   1.0     0.111764     0.035393     0.747392  Biso 1.000000     N
    N   1.0     0.108871     0.535003     0.747863  Biso 1.000000     N
    N   1.0     0.611757     0.035390     0.747392  Biso 1.000000     N
    N   1.0     0.608864     0.535002     0.747863  Biso 1.000000     N
    N   1.0     0.272098     0.428609     0.108852  Biso 1.000000     N
    N   1.0     0.272962     0.928621     0.108491  Biso 1.000000     N
    N   1.0     0.772085     0.428609     0.108852  Biso 1.000000     N
    N   1.0     0.772955     0.928619     0.108494  Biso 1.000000     N
    N   1.0     0.211586     0.444521     0.872360  Biso 1.000000     N
    N   1.0     0.213369     0.944495     0.871760  Biso 1.000000     N
    N   1.0     0.711585     0.444522     0.872361  Biso 1.000000     N
    N   1.0     0.713366     0.944494     0.871757  Biso 1.000000     N
    N   1.0     0.329414     0.023408     0.741296  Biso 1.000000     N
    N   1.0     0.326416     0.523133     0.740907  Biso 1.000000     N
    N   1.0     0.829407     0.023407     0.741297  Biso 1.000000     N
    N   1.0     0.826408     0.523136     0.740907  Biso 1.000000     N
    N   1.0     0.391117     0.465007     0.252151  Biso 1.000000     N
    N   1.0     0.391477     0.965069     0.252205  Biso 1.000000     N
    N   1.0     0.891109     0.465007     0.252152  Biso 1.000000     N
    N   1.0     0.891467     0.965071     0.252207  Biso 1.000000     N
    N   1.0     0.229332     0.071354     0.891124  Biso 1.000000     N
    N   1.0     0.227916     0.571414     0.891144  Biso 1.000000     N
    N   1.0     0.729324     0.071353     0.891125  Biso 1.000000     N
    N   1.0     0.727907     0.571414     0.891144  Biso 1.000000     N
    N   1.0     0.288713     0.055535     0.127784  Biso 1.000000     N
    N   1.0     0.288417     0.555490     0.127647  Biso 1.000000     N
    N   1.0     0.788713     0.055533     0.127781  Biso 1.000000     N
    N   1.0     0.788410     0.555490     0.127646  Biso 1.000000     N
    N   1.0     0.173577     0.476870     0.259100  Biso 1.000000     N
    N   1.0     0.173833     0.976456     0.258506  Biso 1.000000     N
    N   1.0     0.673569     0.476875     0.259100  Biso 1.000000     N
    N   1.0     0.673824     0.976456     0.258508  Biso 1.000000     N
    F   1.0     0.351243     0.467222     0.583833  Biso 1.000000     F
    F   1.0     0.351585     0.969590     0.583603  Biso 1.000000     F
    F   1.0     0.851234     0.467223     0.583833  Biso 1.000000     F
    F   1.0     0.851575     0.969593     0.583602  Biso 1.000000     F
    F   1.0     0.188720     0.310501     0.869426  Biso 1.000000     F
    F   1.0     0.188760     0.810510     0.869356  Biso 1.000000     F
    F   1.0     0.688714     0.310500     0.869427  Biso 1.000000     F
    F   1.0     0.688746     0.810510     0.869358  Biso 1.000000     F
    F   1.0     0.311303     0.298787     0.120573  Biso 1.000000     F
    F   1.0     0.311312     0.798755     0.120513  Biso 1.000000     F
    F   1.0     0.811295     0.298786     0.120575  Biso 1.000000     F
    F   1.0     0.811298     0.798756     0.120515  Biso 1.000000     F
    F   1.0     0.129848     0.055637     0.560319  Biso 1.000000     F
    F   1.0     0.125883     0.557800     0.560210  Biso 1.000000     F
    F   1.0     0.629843     0.055635     0.560320  Biso 1.000000     F
    F   1.0     0.625875     0.557800     0.560210  Biso 1.000000     F
    F   1.0     0.152043     0.030370     0.416377  Biso 1.000000     F
    F   1.0     0.148757     0.532757     0.416176  Biso 1.000000     F
    F   1.0     0.652033     0.030373     0.416376  Biso 1.000000     F
    F   1.0     0.648749     0.532757     0.416176  Biso 1.000000     F
    F   1.0     0.311297     0.189502     0.130650  Biso 1.000000     F
    F   1.0     0.311272     0.689479     0.130601  Biso 1.000000     F
    F   1.0     0.811289     0.189500     0.130653  Biso 1.000000     F
    F   1.0     0.811268     0.689480     0.130599  Biso 1.000000     F
    F   1.0     0.188737     0.201219     0.879523  Biso 1.000000     F
    F   1.0     0.188701     0.701220     0.879474  Biso 1.000000     F
    F   1.0     0.688725     0.201218     0.879527  Biso 1.000000     F
    F   1.0     0.688698     0.701221     0.879472  Biso 1.000000     F
    F   1.0     0.374118     0.442182     0.439796  Biso 1.000000     F
    F   1.0     0.373774     0.944330     0.439633  Biso 1.000000     F
    F   1.0     0.874110     0.442181     0.439797  Biso 1.000000     F
    F   1.0     0.873767     0.944327     0.439634  Biso 1.000000     F
    P   1.0     0.448632     0.339610     0.771852  Biso 1.000000     P
    P   1.0     0.449396     0.839582     0.771785  Biso 1.000000     P
    P   1.0     0.948624     0.339609     0.771851  Biso 1.000000     P
    P   1.0     0.949388     0.839583     0.771785  Biso 1.000000     P
    P   1.0     0.051752     0.160437     0.228348  Biso 1.000000     P
    P   1.0     0.051465     0.660430     0.228182  Biso 1.000000     P
    P   1.0     0.551744     0.160437     0.228348  Biso 1.000000     P
    P   1.0     0.551458     0.660430     0.228183  Biso 1.000000     P
   Cu   1.0     0.218619     0.021331     0.808693  Biso 1.000000    Cu
   Cu   1.0     0.215817     0.521256     0.809107  Biso 1.000000    Cu
   Cu   1.0     0.718611     0.021332     0.808692  Biso 1.000000    Cu
   Cu   1.0     0.715810     0.521255     0.809108  Biso 1.000000    Cu
   Cu   1.0     0.284178     0.478762     0.190903  Biso 1.000000    Cu
   Cu   1.0     0.284669     0.978673     0.190738  Biso 1.000000    Cu
   Cu   1.0     0.784171     0.478759     0.190902  Biso 1.000000    Cu
   Cu   1.0     0.784660     0.978673     0.190738  Biso 1.000000    Cu
