#======================================================================

# CRYSTAL DATA

#----------------------------------------------------------------------

data_VESTA_phase_1


_pd_phase_name                         MOF
_cell_length_a                         12.90600
_cell_length_b                         14.61500
_cell_length_c                         15.12500
_cell_angle_alpha                      90.00500
_cell_angle_beta                       90.01400
_cell_angle_gamma                      89.97600
_symmetry_space_group_name_H-M         "P 1"
_symmetry_Int_Tables_number            1

loop_
_symmetry_equiv_pos_as_xyz
   "x, y, z"

loop_
   _atom_site_label
   _atom_site_occupancy
   _atom_site_fract_x
   _atom_site_fract_y
   _atom_site_fract_z
   _atom_site_adp_type
   _atom_site_B_iso_or_equiv
   _atom_site_type_symbol
    H   1.0     0.371135     0.650214     0.744855  Biso 1.000000     H
    H   1.0     0.869914     0.651910     0.745035  Biso 1.000000     H
    H   1.0     0.384578     0.533917     0.864860  Biso 1.000000     H
    H   1.0     0.881823     0.536322     0.865766  Biso 1.000000     H
    H   1.0     0.488374     0.258430     0.718439  Biso 1.000000     H
    H   1.0     0.986352     0.259727     0.721654  Biso 1.000000     H
    H   1.0     0.544788     0.218749     0.566569  Biso 1.000000     H
    H   1.0     0.000000     0.219035     0.570415  Biso 1.000000     H
    H   1.0     0.552591     0.339234     0.450322  Biso 1.000000     H
    H   1.0     0.000000     0.338828     0.453549  Biso 1.000000     H
    H   1.0     0.503642     0.498514     0.484994  Biso 1.000000     H
    H   1.0     0.000000     0.498397     0.486998  Biso 1.000000     H
    H   1.0     0.379015     0.347122     0.243751  Biso 1.000000     H
    H   1.0     0.879308     0.347000     0.245616  Biso 1.000000     H
    H   1.0     0.366587     0.462887     0.364312  Biso 1.000000     H
    H   1.0     0.866223     0.462750     0.366137  Biso 1.000000     H
    H   1.0     0.263204     0.739411     0.219340  Biso 1.000000     H
    H   1.0     0.761384     0.738802     0.221181  Biso 1.000000     H
    H   1.0     0.206442     0.779891     0.067754  Biso 1.000000     H
    H   1.0     0.704618     0.779107     0.069538  Biso 1.000000     H
    H   1.0     0.197712     0.659909     0.951044  Biso 1.000000     H
    H   1.0     0.697081     0.659211     0.952702  Biso 1.000000     H
    H   1.0     0.246180     0.500358     0.984986  Biso 1.000000     H
    H   1.0     0.746505     0.499855     0.986616  Biso 1.000000     H
    H   1.0     0.130028     0.152466     0.755638  Biso 1.000000     H
    H   1.0     0.628771     0.150130     0.755218  Biso 1.000000     H
    H   1.0     0.117743     0.037094     0.634721  Biso 1.000000     H
    H   1.0     0.615410     0.033818     0.635206  Biso 1.000000     H
    H   1.0     0.012740     0.760579     0.778472  Biso 1.000000     H
    H   1.0     0.511596     0.758406     0.781605  Biso 1.000000     H
    H   1.0    -0.044413     0.719652     0.929801  Biso 1.000000     H
    H   1.0     0.455223     0.718792     0.933485  Biso 1.000000     H
    H   1.0    -0.053019     0.839202     0.046937  Biso 1.000000     H
    H   1.0     0.447427     0.839299     0.049711  Biso 1.000000     H
    H   1.0    -0.003944     0.998740     0.013716  Biso 1.000000     H
    H   1.0     0.496285     0.998554     0.015012  Biso 1.000000     H
    H   1.0     0.120543     0.847379     0.254489  Biso 1.000000     H
    H   1.0     0.620832     0.847186     0.256352  Biso 1.000000     H
    H   1.0     0.133889     0.962938     0.133827  Biso 1.000000     H
    H   1.0     0.633287     0.962986     0.135844  Biso 1.000000     H
    H   1.0     0.238890     0.239041     0.278594  Biso 1.000000     H
    H   1.0     0.736765     0.239360     0.280909  Biso 1.000000     H
    H   1.0     0.295664     0.279397     0.430217  Biso 1.000000     H
    H   1.0     0.793655     0.279736     0.432489  Biso 1.000000     H
    H   1.0     0.303142     0.159581     0.547145  Biso 1.000000     H
    H   1.0     0.802397     0.159713     0.549168  Biso 1.000000     H
    H   1.0     0.253608     0.000269     0.513326  Biso 1.000000     H
    H   1.0     0.753841     0.000230     0.515194  Biso 1.000000     H
    C   1.0     0.432605     0.639222     0.580933  Biso 1.000000     C
    C   1.0     0.932953     0.639766     0.581603  Biso 1.000000     C
    C   1.0     0.432653     0.561999     0.644804  Biso 1.000000     C
    C   1.0     0.932308     0.562970     0.645931  Biso 1.000000     C
    C   1.0     0.399181     0.581558     0.729994  Biso 1.000000     C
    C   1.0     0.897905     0.583105     0.730745  Biso 1.000000     C
    C   1.0     0.405037     0.515583     0.797228  Biso 1.000000     C
    C   1.0     0.902844     0.517525     0.798378  Biso 1.000000     C
    C   1.0     0.436253     0.427001     0.778493  Biso 1.000000     C
    C   1.0     0.934098     0.428793     0.780376  Biso 1.000000     C
    C   1.0     0.464794     0.402134     0.690355  Biso 1.000000     C
    C   1.0     0.963437     0.403314     0.692603  Biso 1.000000     C
    C   1.0     0.467443     0.471639     0.622691  Biso 1.000000     C
    C   1.0     0.966983     0.472403     0.624581  Biso 1.000000     C
    C   1.0     0.493048     0.311053     0.667685  Biso 1.000000     C
    C   1.0     0.991663     0.312043     0.670648  Biso 1.000000     C
    C   1.0     0.523621     0.288977     0.583006  Biso 1.000000     C
    C   1.0     0.000000     0.289412     0.586311  Biso 1.000000     C
    C   1.0     0.527558     0.357275     0.516962  Biso 1.000000     C
    C   1.0     0.000000     0.357302     0.519915  Biso 1.000000     C
    C   1.0     0.499999     0.446332     0.536211  Biso 1.000000     C
    C   1.0     0.000000     0.446523     0.538476  Biso 1.000000     C
    C   1.0     0.439208     0.359319     0.853629  Biso 1.000000     C
    C   1.0     0.937248     0.361792     0.856060  Biso 1.000000     C
    C   1.0     0.316809     0.359202     0.079934  Biso 1.000000     C
    C   1.0     0.816965     0.358768     0.081812  Biso 1.000000     C
    C   1.0     0.317320     0.435988     0.144279  Biso 1.000000     C
    C   1.0     0.817484     0.435672     0.146043  Biso 1.000000     C
    C   1.0     0.351162     0.415929     0.229279  Biso 1.000000     C
    C   1.0     0.851287     0.415741     0.231077  Biso 1.000000     C
    C   1.0     0.345893     0.481610     0.296824  Biso 1.000000     C
    C   1.0     0.845602     0.481417     0.298617  Biso 1.000000     C
    C   1.0     0.314843     0.570360     0.278601  Biso 1.000000     C
    C   1.0     0.814109     0.570032     0.280355  Biso 1.000000     C
    C   1.0     0.286067     0.595739     0.190641  Biso 1.000000     C
    C   1.0     0.785345     0.595295     0.192372  Biso 1.000000     C
    C   1.0     0.282878     0.526563     0.122676  Biso 1.000000     C
    C   1.0     0.782683     0.526128     0.124392  Biso 1.000000     C
    C   1.0     0.258112     0.687003     0.168399  Biso 1.000000     C
    C   1.0     0.756801     0.686426     0.170172  Biso 1.000000     C
    C   1.0     0.227318     0.709521     0.083873  Biso 1.000000     C
    C   1.0     0.726032     0.708851     0.085619  Biso 1.000000     C
    C   1.0     0.222879     0.641532     0.017546  Biso 1.000000     C
    C   1.0     0.722212     0.640891     0.019229  Biso 1.000000     C
    C   1.0     0.250146     0.552323     0.036368  Biso 1.000000     C
    C   1.0     0.750011     0.551802     0.038042  Biso 1.000000     C
    C   1.0     0.311876     0.637625     0.354124  Biso 1.000000     C
    C   1.0     0.810306     0.637232     0.355890  Biso 1.000000     C
    C   1.0     0.066983     0.140258     0.918932  Biso 1.000000     C
    C   1.0     0.567158     0.139172     0.919131  Biso 1.000000     C
    C   1.0     0.067718     0.063489     0.854654  Biso 1.000000     C
    C   1.0     0.567204     0.061961     0.855234  Biso 1.000000     C
    C   1.0     0.101997     0.083675     0.769828  Biso 1.000000     C
    C   1.0     0.600721     0.081495     0.770062  Biso 1.000000     C
    C   1.0     0.096764     0.018223     0.702095  Biso 1.000000     C
    C   1.0     0.594919     0.015504     0.702828  Biso 1.000000     C
    C   1.0     0.065193     0.929601     0.720034  Biso 1.000000     C
    C   1.0     0.563718     0.926944     0.721550  Biso 1.000000     C
    C   1.0     0.036077     0.904045     0.807818  Biso 1.000000     C
    C   1.0     0.535153     0.902104     0.809680  Biso 1.000000     C
    C   1.0     0.032946     0.972982     0.875980  Biso 1.000000     C
    C   1.0     0.532472     0.971622     0.877341  Biso 1.000000     C
    C   1.0     0.007764     0.812786     0.829624  Biso 1.000000     C
    C   1.0     0.506922     0.811044     0.832356  Biso 1.000000     C
    C   1.0    -0.023268     0.790019     0.914000  Biso 1.000000     C
    C   1.0     0.476363     0.789006     0.917040  Biso 1.000000     C
    C   1.0    -0.027650     0.857776     0.980559  Biso 1.000000     C
    C   1.0     0.472428     0.857315     0.983087  Biso 1.000000     C
    C   1.0    -0.000066     0.946985     0.962126  Biso 1.000000     C
    C   1.0     0.499936     0.946355     0.963826  Biso 1.000000     C
    C   1.0     0.061393     0.862592     0.644381  Biso 1.000000     C
    C   1.0     0.560765     0.859258     0.646408  Biso 1.000000     C
    C   1.0     0.182819     0.859414     0.418378  Biso 1.000000     C
    C   1.0     0.682957     0.859144     0.420141  Biso 1.000000     C
    C   1.0     0.182540     0.936105     0.353948  Biso 1.000000     C
    C   1.0     0.682509     0.935977     0.355865  Biso 1.000000     C
    C   1.0     0.148722     0.916071     0.268950  Biso 1.000000     C
    C   1.0     0.648675     0.915972     0.270852  Biso 1.000000     C
    C   1.0     0.154529     0.981638     0.201333  Biso 1.000000     C
    C   1.0     0.653961     0.981666     0.203345  Biso 1.000000     C
    C   1.0     0.186099     0.070228     0.219504  Biso 1.000000     C
    C   1.0     0.685000     0.070383     0.221623  Biso 1.000000     C
    C   1.0     0.214874     0.095584     0.307460  Biso 1.000000     C
    C   1.0     0.713817     0.095710     0.309583  Biso 1.000000     C
    C   1.0     0.217473     0.026504     0.375498  Biso 1.000000     C
    C   1.0     0.717004     0.026505     0.377514  Biso 1.000000     C
    C   1.0     0.243455     0.186698     0.329626  Biso 1.000000     C
    C   1.0     0.741845     0.186939     0.331835  Biso 1.000000     C
    C   1.0     0.274234     0.209152     0.414169  Biso 1.000000     C
    C   1.0     0.772706     0.209398     0.416354  Biso 1.000000     C
    C   1.0     0.278004     0.141246     0.480604  Biso 1.000000     C
    C   1.0     0.777164     0.141386     0.482651  Biso 1.000000     C
    C   1.0     0.250157     0.052180     0.461840  Biso 1.000000     C
    C   1.0     0.749824     0.052212     0.463812  Biso 1.000000     C
    C   1.0     0.189801     0.137364     0.143946  Biso 1.000000     C
    C   1.0     0.687931     0.137604     0.146092  Biso 1.000000     C
    O   1.0     0.355988     0.695091     0.580884  Biso 1.000000     O
    O   1.0     0.856521     0.695794     0.581078  Biso 1.000000     O
    O   1.0     0.009800     0.652264     0.529342  Biso 1.000000     O
    O   1.0     0.509340     0.652109     0.528608  Biso 1.000000     O
    O   1.0     0.381642     0.288861     0.848412  Biso 1.000000     O
    O   1.0     0.879827     0.291195     0.851820  Biso 1.000000     O
    O   1.0    -0.003422     0.382269     0.920241  Biso 1.000000     O
    O   1.0     0.498017     0.378999     0.918394  Biso 1.000000     O
    O   1.0     0.392846     0.302716     0.079977  Biso 1.000000     O
    O   1.0     0.893306     0.302589     0.081396  Biso 1.000000     O
    O   1.0     0.240348     0.347276     0.027059  Biso 1.000000     O
    O   1.0     0.740043     0.346467     0.029531  Biso 1.000000     O
    O   1.0     0.369688     0.707964     0.349569  Biso 1.000000     O
    O   1.0     0.867839     0.707794     0.351808  Biso 1.000000     O
    O   1.0     0.252603     0.617688     0.418495  Biso 1.000000     O
    O   1.0     0.750484     0.617096     0.419768  Biso 1.000000     O
    O   1.0     0.143023     0.196673     0.919117  Biso 1.000000     O
    O   1.0     0.643803     0.194953     0.919305  Biso 1.000000     O
    O   1.0     0.490292     0.152145     0.971310  Biso 1.000000     O
    O   1.0     0.990341     0.152375     0.971491  Biso 1.000000     O
    O   1.0     0.120020     0.792678     0.647852  Biso 1.000000     O
    O   1.0     0.618337     0.788763     0.651589  Biso 1.000000     O
    O   1.0     0.501970     0.878998     0.581637  Biso 1.000000     O
    O   1.0     0.000000     0.882329     0.581224  Biso 1.000000     O
    O   1.0     0.106063     0.803759     0.419204  Biso 1.000000     O
    O   1.0     0.606916     0.802717     0.419997  Biso 1.000000     O
    O   1.0     0.259897     0.846761     0.470408  Biso 1.000000     O
    O   1.0     0.759376     0.847114     0.473048  Biso 1.000000     O
    O   1.0     0.132405     0.208043     0.148220  Biso 1.000000     O
    O   1.0     0.630266     0.208077     0.150696  Biso 1.000000     O
    O   1.0     0.249277     0.117059     0.079863  Biso 1.000000     O
    O   1.0     0.747045     0.117482     0.081652  Biso 1.000000     O
   Ca   1.0     0.433098     0.796565     0.465215  Biso 1.000000    Ca
   Ca   1.0     0.932633     0.797314     0.465864  Biso 1.000000    Ca
   Ca   1.0     0.316912     0.201737     0.964319  Biso 1.000000    Ca
   Ca   1.0     0.816790     0.201243     0.966314  Biso 1.000000    Ca
   Ca   1.0     0.066853     0.297625     0.034627  Biso 1.000000    Ca
   Ca   1.0     0.566783     0.296455     0.034827  Biso 1.000000    Ca
   Ca   1.0     0.183094     0.701840     0.533970  Biso 1.000000    Ca
   Ca   1.0     0.682761     0.701467     0.535593  Biso 1.000000    Ca
