#======================================================================

# CRYSTAL DATA

#----------------------------------------------------------------------

data_VESTA_phase_1


_pd_phase_name                         MOF
_cell_length_a                         22.35300
_cell_length_b                         16.76000
_cell_length_c                         18.26200
_cell_angle_alpha                      62.67800
_cell_angle_beta                       72.41000
_cell_angle_gamma                      90.05400
_symmetry_space_group_name_H-M         "P 1"
_symmetry_Int_Tables_number            1

loop_
_symmetry_equiv_pos_as_xyz
   "x, y, z"

loop_
   _atom_site_label
   _atom_site_occupancy
   _atom_site_fract_x
   _atom_site_fract_y
   _atom_site_fract_z
   _atom_site_adp_type
   _atom_site_B_iso_or_equiv
   _atom_site_type_symbol
    H   1.0     0.378429     0.493425     0.695198  Biso 1.000000     H
    H   1.0     0.878288     0.493598     0.695032  Biso 1.000000     H
    H   1.0     0.360448     0.299696     0.960910  Biso 1.000000     H
    H   1.0     0.860149     0.299832     0.960813  Biso 1.000000     H
    H   1.0     0.318390     0.567918     0.899910  Biso 1.000000     H
    H   1.0     0.817475     0.567769     0.899912  Biso 1.000000     H
    H   1.0     0.475827     0.000000     0.633859  Biso 1.000000     H
    H   1.0     0.974553     0.000000     0.634689  Biso 1.000000     H
    H   1.0     0.380983     0.858424     0.748141  Biso 1.000000     H
    H   1.0     0.879388     0.858069     0.748867  Biso 1.000000     H
    H   1.0     0.464569     0.017016     0.359543  Biso 1.000000     H
    H   1.0     0.963682     0.016178     0.360434  Biso 1.000000     H
    H   1.0     0.419736     0.000000     0.257797  Biso 1.000000     H
    H   1.0     0.919336     0.000000     0.258370  Biso 1.000000     H
    H   1.0     0.313370     0.900496     0.319293  Biso 1.000000     H
    H   1.0     0.812931     0.899705     0.319439  Biso 1.000000     H
    H   1.0     0.260069     0.816483     0.482091  Biso 1.000000     H
    H   1.0     0.759093     0.816157     0.482084  Biso 1.000000     H
    H   1.0     0.016618     0.105825     0.482004  Biso 1.000000     H
    H   1.0     0.517566     0.106812     0.481120  Biso 1.000000     H
    H   1.0     0.015865     0.063467     0.410112  Biso 1.000000     H
    H   1.0     0.516751     0.064468     0.409223  Biso 1.000000     H
    H   1.0     0.497890     0.188491     0.287183  Biso 1.000000     H
    H   1.0     0.997361     0.187695     0.287612  Biso 1.000000     H
    H   1.0     0.429523     0.301127     0.227754  Biso 1.000000     H
    H   1.0     0.929289     0.300644     0.227744  Biso 1.000000     H
    H   1.0     0.316086     0.236909     0.490594  Biso 1.000000     H
    H   1.0     0.815808     0.237386     0.490279  Biso 1.000000     H
    H   1.0     0.382496     0.126523     0.549615  Biso 1.000000     H
    H   1.0     0.881871     0.126668     0.549719  Biso 1.000000     H
    H   1.0     0.121340     0.187964     0.305372  Biso 1.000000     H
    H   1.0     0.621269     0.187702     0.305480  Biso 1.000000     H
    H   1.0     0.139653     0.259823     0.039604  Biso 1.000000     H
    H   1.0     0.639697     0.259608     0.039674  Biso 1.000000     H
    H   1.0     0.182494     0.467082     0.100271  Biso 1.000000     H
    H   1.0     0.681765     0.466983     0.100597  Biso 1.000000     H
    H   1.0     0.024917     0.643094     0.365962  Biso 1.000000     H
    H   1.0     0.524482     0.642747     0.365791  Biso 1.000000     H
    H   1.0     0.119508     0.606077     0.252040  Biso 1.000000     H
    H   1.0     0.619411     0.606091     0.251907  Biso 1.000000     H
    H   1.0     0.035391     0.376355     0.640723  Biso 1.000000     H
    H   1.0     0.535173     0.376300     0.640680  Biso 1.000000     H
    H   1.0     0.079957     0.259181     0.742823  Biso 1.000000     H
    H   1.0     0.579870     0.259396     0.742771  Biso 1.000000     H
    H   1.0     0.186146     0.219276     0.681733  Biso 1.000000     H
    H   1.0     0.686141     0.219666     0.681686  Biso 1.000000     H
    H   1.0     0.239546     0.297625     0.518952  Biso 1.000000     H
    H   1.0     0.739507     0.297980     0.518898  Biso 1.000000     H
    H   1.0     0.482328     0.587371     0.518509  Biso 1.000000     H
    H   1.0     0.982895     0.587823     0.518664  Biso 1.000000     H
    H   1.0     0.482837     0.473001     0.590449  Biso 1.000000     H
    H   1.0     0.983341     0.473468     0.590674  Biso 1.000000     H
    H   1.0     0.002108     0.475000     0.713080  Biso 1.000000     H
    H   1.0     0.501234     0.474475     0.712972  Biso 1.000000     H
    H   1.0     0.070350     0.527945     0.772925  Biso 1.000000     H
    H   1.0     0.569174     0.527405     0.773183  Biso 1.000000     H
    H   1.0     0.184099     0.727121     0.510331  Biso 1.000000     H
    H   1.0     0.683377     0.726470     0.510799  Biso 1.000000     H
    H   1.0     0.117843     0.675980     0.450942  Biso 1.000000     H
    H   1.0     0.617348     0.675446     0.451041  Biso 1.000000     H
    H   1.0     0.275146     0.993396     0.695502  Biso 1.000000     H
    H   1.0     0.774569     0.992990     0.695721  Biso 1.000000     H
    H   1.0     0.160116     0.799774     0.960461  Biso 1.000000     H
    H   1.0     0.659795     0.799550     0.960906  Biso 1.000000     H
    H   1.0     0.232313     0.067872     0.900343  Biso 1.000000     H
    H   1.0     0.732399     0.067598     0.900435  Biso 1.000000     H
    H   1.0     0.208010     0.509089     0.633971  Biso 1.000000     H
    H   1.0     0.708074     0.509131     0.633870  Biso 1.000000     H
    H   1.0     0.246166     0.358380     0.748444  Biso 1.000000     H
    H   1.0     0.746095     0.358283     0.748396  Biso 1.000000     H
    H   1.0     0.355285     0.517165     0.359892  Biso 1.000000     H
    H   1.0     0.855308     0.516972     0.359857  Biso 1.000000     H
    H   1.0     0.450523     0.501898     0.258264  Biso 1.000000     H
    H   1.0     0.950586     0.501700     0.258280  Biso 1.000000     H
    H   1.0     0.026299     0.400499     0.320069  Biso 1.000000     H
    H   1.0     0.526199     0.400624     0.319979  Biso 1.000000     H
    H   1.0    -0.001318     0.316132     0.482929  Biso 1.000000     H
    H   1.0     0.498632     0.316205     0.482831  Biso 1.000000     H
    H   1.0     0.241952     0.606571     0.481276  Biso 1.000000     H
    H   1.0     0.742029     0.606551     0.481176  Biso 1.000000     H
    H   1.0     0.278106     0.564029     0.409518  Biso 1.000000     H
    H   1.0     0.778176     0.563977     0.409446  Biso 1.000000     H
    H   1.0     0.357379     0.688032     0.287169  Biso 1.000000     H
    H   1.0     0.857492     0.687860     0.287097  Biso 1.000000     H
    H   1.0     0.455350     0.800556     0.227431  Biso 1.000000     H
    H   1.0     0.955440     0.800435     0.227324  Biso 1.000000     H
    H   1.0     0.439163     0.736916     0.490047  Biso 1.000000     H
    H   1.0     0.939172     0.737031     0.489916  Biso 1.000000     H
    H   1.0     0.343337     0.626708     0.549348  Biso 1.000000     H
    H   1.0     0.843392     0.626755     0.549246  Biso 1.000000     H
    H   1.0     0.224651     0.688275     0.305257  Biso 1.000000     H
    H   1.0     0.724663     0.688090     0.305275  Biso 1.000000     H
    H   1.0     0.340041     0.760360     0.040337  Biso 1.000000     H
    H   1.0     0.840003     0.760299     0.040299  Biso 1.000000     H
    H   1.0     0.267656     0.967891     0.100692  Biso 1.000000     H
    H   1.0     0.767682     0.967757     0.100833  Biso 1.000000     H
    H   1.0     0.291373     0.143102     0.367295  Biso 1.000000     H
    H   1.0     0.791377     0.143081     0.367189  Biso 1.000000     H
    H   1.0     0.253626     0.106527     0.252689  Biso 1.000000     H
    H   1.0     0.753591     0.106317     0.252715  Biso 1.000000     H
    H   1.0     0.144235     0.876333     0.641146  Biso 1.000000     H
    H   1.0     0.644062     0.876694     0.641287  Biso 1.000000     H
    H   1.0     0.048979     0.759138     0.742695  Biso 1.000000     H
    H   1.0     0.548905     0.759389     0.742848  Biso 1.000000     H
    H   1.0     0.473402     0.719400     0.681056  Biso 1.000000     H
    H   1.0     0.973275     0.719612     0.680850  Biso 1.000000     H
    H   1.0     0.501096     0.797762     0.518195  Biso 1.000000     H
    H   1.0     0.000000     0.798205     0.518000  Biso 1.000000     H
    H   1.0     0.257242     0.087812     0.519968  Biso 1.000000     H
    H   1.0     0.757321     0.087890     0.519845  Biso 1.000000     H
    H   1.0     0.221174     0.973360     0.591700  Biso 1.000000     H
    H   1.0     0.721162     0.973472     0.591656  Biso 1.000000     H
    H   1.0     0.141864     0.974818     0.714001  Biso 1.000000     H
    H   1.0     0.641922     0.974946     0.713910  Biso 1.000000     H
    H   1.0     0.044005     0.027586     0.773711  Biso 1.000000     H
    H   1.0     0.544110     0.027802     0.773641  Biso 1.000000     H
    H   1.0     0.060073     0.226361     0.511043  Biso 1.000000     H
    H   1.0     0.560260     0.226721     0.510994  Biso 1.000000     H
    H   1.0     0.155779     0.175484     0.451751  Biso 1.000000     H
    H   1.0     0.655929     0.175771     0.451693  Biso 1.000000     H
    C   1.0     0.367862     0.476499     0.763350  Biso 1.000000     C
    C   1.0     0.867587     0.476630     0.763219  Biso 1.000000     C
    C   1.0     0.372697     0.389585     0.824380  Biso 1.000000     C
    C   1.0     0.872485     0.389727     0.824243  Biso 1.000000     C
    C   1.0     0.358076     0.367703     0.912588  Biso 1.000000     C
    C   1.0     0.857741     0.367812     0.912480  Biso 1.000000     C
    C   1.0     0.340157     0.432832     0.939109  Biso 1.000000     C
    C   1.0     0.839607     0.432854     0.939048  Biso 1.000000     C
    C   1.0     0.333881     0.518728     0.877868  Biso 1.000000     C
    C   1.0     0.833192     0.518670     0.877838  Biso 1.000000     C
    C   1.0     0.346952     0.540489     0.790303  Biso 1.000000     C
    C   1.0     0.846381     0.540481     0.790247  Biso 1.000000     C
    C   1.0     0.325498     0.410598     0.033503  Biso 1.000000     C
    C   1.0     0.824792     0.410540     0.033489  Biso 1.000000     C
    C   1.0     0.338409     0.630512     0.725272  Biso 1.000000     C
    C   1.0     0.837613     0.630433     0.725300  Biso 1.000000     C
    C   1.0     0.389666     0.319371     0.795817  Biso 1.000000     C
    C   1.0     0.889513     0.319494     0.795697  Biso 1.000000     C
    C   1.0     0.444735     0.971059     0.621407  Biso 1.000000     C
    C   1.0     0.943398     0.970430     0.622170  Biso 1.000000     C
    C   1.0     0.397681     0.896126     0.677084  Biso 1.000000     C
    C   1.0     0.896172     0.895702     0.677806  Biso 1.000000     C
    C   1.0     0.402695     0.933973     0.543363  Biso 1.000000     C
    C   1.0     0.901338     0.933508     0.544054  Biso 1.000000     C
    C   1.0     0.383779     0.929804     0.475203  Biso 1.000000     C
    C   1.0     0.882620     0.929250     0.475812  Biso 1.000000     C
    C   1.0     0.418102     0.976085     0.385174  Biso 1.000000     C
    C   1.0     0.917214     0.975323     0.385861  Biso 1.000000     C
    C   1.0     0.393046     0.966446     0.327905  Biso 1.000000     C
    C   1.0     0.892430     0.965598     0.328412  Biso 1.000000     C
    C   1.0     0.334816     0.910428     0.361239  Biso 1.000000     C
    C   1.0     0.834180     0.909708     0.361522  Biso 1.000000     C
    C   1.0     0.304388     0.863739     0.451665  Biso 1.000000     C
    C   1.0     0.803463     0.863251     0.451900  Biso 1.000000     C
    C   1.0     0.485902     0.079598     0.459184  Biso 1.000000     C
    C   1.0     0.984959     0.078802     0.459896  Biso 1.000000     C
    C   1.0     0.444683     0.148392     0.422492  Biso 1.000000     C
    C   1.0     0.944047     0.147955     0.422811  Biso 1.000000     C
    C   1.0     0.457727     0.198824     0.331819  Biso 1.000000     C
    C   1.0     0.957237     0.198288     0.332092  Biso 1.000000     C
    C   1.0     0.419782     0.262250     0.298152  Biso 1.000000     C
    C   1.0     0.919463     0.261917     0.298173  Biso 1.000000     C
    C   1.0     0.367802     0.276188     0.354776  Biso 1.000000     C
    C   1.0     0.867531     0.276195     0.354582  Biso 1.000000     C
    C   1.0     0.355207     0.226147     0.445369  Biso 1.000000     C
    C   1.0     0.854879     0.226361     0.445209  Biso 1.000000     C
    C   1.0     0.393288     0.163186     0.478879  Biso 1.000000     C
    C   1.0     0.892761     0.163188     0.478963  Biso 1.000000     C
    C   1.0     0.326783     0.344124     0.318256  Biso 1.000000     C
    C   1.0     0.826468     0.344046     0.317963  Biso 1.000000     C
    C   1.0     0.132113     0.239175     0.237153  Biso 1.000000     C
    C   1.0     0.631964     0.238932     0.237289  Biso 1.000000     C
    C   1.0     0.127224     0.213237     0.176171  Biso 1.000000     C
    C   1.0     0.627216     0.212997     0.176260  Biso 1.000000     C
    C   1.0     0.142074     0.279547     0.087880  Biso 1.000000     C
    C   1.0     0.642015     0.279324     0.087994  Biso 1.000000     C
    C   1.0     0.160307     0.371222     0.061207  Biso 1.000000     C
    C   1.0     0.660015     0.371022     0.061424  Biso 1.000000     C
    C   1.0     0.166711     0.395873     0.122390  Biso 1.000000     C
    C   1.0     0.666210     0.395715     0.122677  Biso 1.000000     C
    C   1.0     0.153407     0.330107     0.210031  Biso 1.000000     C
    C   1.0     0.652973     0.329914     0.210292  Biso 1.000000     C
    C   1.0     0.175172     0.443413     0.966741  Biso 1.000000     C
    C   1.0     0.674708     0.443232     0.967026  Biso 1.000000     C
    C   1.0     0.162128     0.355266     0.274875  Biso 1.000000     C
    C   1.0     0.661429     0.354939     0.275345  Biso 1.000000     C
    C   1.0     0.110112     0.114373     0.204874  Biso 1.000000     C
    C   1.0     0.610195     0.114146     0.204921  Biso 1.000000     C
    C   1.0     0.055821     0.592254     0.378605  Biso 1.000000     C
    C   1.0     0.555470     0.592021     0.378450  Biso 1.000000     C
    C   1.0     0.102731     0.572749     0.323097  Biso 1.000000     C
    C   1.0     0.602553     0.572700     0.322968  Biso 1.000000     C
    C   1.0     0.097451     0.476831     0.456935  Biso 1.000000     C
    C   1.0     0.597193     0.476765     0.456841  Biso 1.000000     C
    C   1.0     0.116172     0.404443     0.525253  Biso 1.000000     C
    C   1.0     0.615967     0.404491     0.525187  Biso 1.000000     C
    C   1.0     0.081783     0.360905     0.615256  Biso 1.000000     C
    C   1.0     0.581603     0.360960     0.615197  Biso 1.000000     C
    C   1.0     0.106687     0.294017     0.672727  Biso 1.000000     C
    C   1.0     0.606585     0.294217     0.672671  Biso 1.000000     C
    C   1.0     0.164817     0.271128     0.639606  Biso 1.000000     C
    C   1.0     0.664762     0.271427     0.639559  Biso 1.000000     C
    C   1.0     0.195295     0.314626     0.549191  Biso 1.000000     C
    C   1.0     0.695220     0.314902     0.549144  Biso 1.000000     C
    C   1.0     0.014402     0.538531     0.540834  Biso 1.000000     C
    C   1.0     0.513833     0.538120     0.540687  Biso 1.000000     C
    C   1.0     0.055503     0.570440     0.577872  Biso 1.000000     C
    C   1.0     0.554806     0.569984     0.577876  Biso 1.000000     C
    C   1.0     0.042326     0.530032     0.668588  Biso 1.000000     C
    C   1.0     0.541456     0.529513     0.668624  Biso 1.000000     C
    C   1.0     0.080207     0.559675     0.702490  Biso 1.000000     C
    C   1.0     0.579171     0.559112     0.702722  Biso 1.000000     C
    C   1.0     0.132257     0.630326     0.646062  Biso 1.000000     C
    C   1.0     0.631237     0.629737     0.646429  Biso 1.000000     C
    C   1.0     0.144923     0.671086     0.555437  Biso 1.000000     C
    C   1.0     0.644151     0.670479     0.555757  Biso 1.000000     C
    C   1.0     0.106933     0.641736     0.521701  Biso 1.000000     C
    C   1.0     0.606299     0.641206     0.521826  Biso 1.000000     C
    C   1.0     0.173382     0.661659     0.682627  Biso 1.000000     C
    C   1.0     0.672065     0.661187     0.683186  Biso 1.000000     C
    C   1.0     0.251559     0.976474     0.763565  Biso 1.000000     C
    C   1.0     0.751142     0.976095     0.763807  Biso 1.000000     C
    C   1.0     0.216317     0.889565     0.824283  Biso 1.000000     C
    C   1.0     0.715836     0.889240     0.824636  Biso 1.000000     C
    C   1.0     0.186628     0.867731     0.912347  Biso 1.000000     C
    C   1.0     0.686347     0.867463     0.912713  Biso 1.000000     C
    C   1.0     0.191004     0.932866     0.939040  Biso 1.000000     C
    C   1.0     0.690912     0.932629     0.939297  Biso 1.000000     C
    C   1.0     0.227936     0.018692     0.878183  Biso 1.000000     C
    C   1.0     0.727899     0.018396     0.878341  Biso 1.000000     C
    C   1.0     0.258812     0.040422     0.790751  Biso 1.000000     C
    C   1.0     0.758646     0.040058     0.790898  Biso 1.000000     C
    C   1.0     0.157971     0.910640     0.033245  Biso 1.000000     C
    C   1.0     0.657954     0.910497     0.033477  Biso 1.000000     C
    C   1.0     0.299820     0.130390     0.726039  Biso 1.000000     C
    C   1.0     0.799684     0.130022     0.726066  Biso 1.000000     C
    C   1.0     0.214012     0.819401     0.795478  Biso 1.000000     C
    C   1.0     0.713111     0.819037     0.795997  Biso 1.000000     C
    C   1.0     0.245260     0.470920     0.621606  Biso 1.000000     C
    C   1.0     0.745286     0.470896     0.621537  Biso 1.000000     C
    C   1.0     0.264695     0.396039     0.677388  Biso 1.000000     C
    C   1.0     0.764651     0.395945     0.677341  Biso 1.000000     C
    C   1.0     0.325943     0.433872     0.543750  Biso 1.000000     C
    C   1.0     0.825920     0.433733     0.543724  Biso 1.000000     C
    C   1.0     0.378595     0.429709     0.475691  Biso 1.000000     C
    C   1.0     0.878589     0.429555     0.475691  Biso 1.000000     C
    C   1.0     0.388972     0.476170     0.385610  Biso 1.000000     C
    C   1.0     0.888990     0.475988     0.385604  Biso 1.000000     C
    C   1.0     0.442393     0.466633     0.328413  Biso 1.000000     C
    C   1.0     0.942431     0.466446     0.328438  Biso 1.000000     C
    C   1.0     0.483981     0.410478     0.361874  Biso 1.000000     C
    C   1.0     0.984027     0.410334     0.361935  Biso 1.000000     C
    C   1.0     0.469492     0.363583     0.452335  Biso 1.000000     C
    C   1.0     0.969513     0.363470     0.452403  Biso 1.000000     C
    C   1.0     0.284393     0.579324     0.459345  Biso 1.000000     C
    C   1.0     0.784462     0.579277     0.459270  Biso 1.000000     C
    C   1.0     0.343835     0.648202     0.422392  Biso 1.000000     C
    C   1.0     0.843915     0.648139     0.422306  Biso 1.000000     C
    C   1.0     0.375590     0.698464     0.331694  Biso 1.000000     C
    C   1.0     0.875686     0.698347     0.331609  Biso 1.000000     C
    C   1.0     0.430316     0.761837     0.297849  Biso 1.000000     C
    C   1.0     0.930399     0.761752     0.297743  Biso 1.000000     C
    C   1.0     0.454485     0.775886     0.354317  Biso 1.000000     C
    C   1.0     0.954537     0.775894     0.354189  Biso 1.000000     C
    C   1.0     0.422274     0.726084     0.444924  Biso 1.000000     C
    C   1.0     0.922315     0.726129     0.444802  Biso 1.000000     C
    C   1.0     0.367487     0.663196     0.478605  Biso 1.000000     C
    C   1.0     0.867547     0.663203     0.478502  Biso 1.000000     C
    C   1.0     0.013822     0.843694     0.317503  Biso 1.000000     C
    C   1.0     0.513782     0.843601     0.317662  Biso 1.000000     C
    C   1.0     0.248298     0.739562     0.237236  Biso 1.000000     C
    C   1.0     0.748315     0.739404     0.237268  Biso 1.000000     C
    C   1.0     0.283622     0.713586     0.176475  Biso 1.000000     C
    C   1.0     0.783614     0.713455     0.176468  Biso 1.000000     C
    C   1.0     0.313430     0.780021     0.088484  Biso 1.000000     C
    C   1.0     0.813417     0.779924     0.088489  Biso 1.000000     C
    C   1.0     0.309064     0.871824     0.061898  Biso 1.000000     C
    C   1.0     0.809070     0.871729     0.061962  Biso 1.000000     C
    C   1.0     0.272032     0.896564     0.122776  Biso 1.000000     C
    C   1.0     0.772054     0.896433     0.122882  Biso 1.000000     C
    C   1.0     0.241074     0.830667     0.210144  Biso 1.000000     C
    C   1.0     0.741097     0.830500     0.210240  Biso 1.000000     C
    C   1.0     0.342234     0.943950     0.967774  Biso 1.000000     C
    C   1.0     0.842201     0.943898     0.967833  Biso 1.000000     C
    C   1.0     0.200077     0.855741     0.274907  Biso 1.000000     C
    C   1.0     0.700075     0.855489     0.275061  Biso 1.000000     C
    C   1.0     0.286044     0.614670     0.205089  Biso 1.000000     C
    C   1.0     0.785904     0.614504     0.205098  Biso 1.000000     C
    C   1.0     0.254220     0.092382     0.379588  Biso 1.000000     C
    C   1.0     0.754197     0.092360     0.379544  Biso 1.000000     C
    C   1.0     0.234990     0.073115     0.323739  Biso 1.000000     C
    C   1.0     0.734950     0.072997     0.323761  Biso 1.000000     C
    C   1.0     0.173629     0.977117     0.457312  Biso 1.000000     C
    C   1.0     0.673569     0.977145     0.457378  Biso 1.000000     C
    C   1.0     0.120977     0.904716     0.525304  Biso 1.000000     C
    C   1.0     0.620932     0.904739     0.525416  Biso 1.000000     C
    C   1.0     0.110559     0.861007     0.615393  Biso 1.000000     C
    C   1.0     0.610468     0.861205     0.615513  Biso 1.000000     C
    C   1.0     0.057131     0.794120     0.672538  Biso 1.000000     C
    C   1.0     0.557085     0.794248     0.672686  Biso 1.000000     C
    C   1.0     0.015548     0.771432     0.639010  Biso 1.000000     C
    C   1.0     0.515597     0.771311     0.639183  Biso 1.000000     C
    C   1.0     0.030086     0.815090     0.548536  Biso 1.000000     C
    C   1.0     0.530162     0.814826     0.548709  Biso 1.000000     C
    C   1.0     0.214856     0.038448     0.541847  Biso 1.000000     C
    C   1.0     0.714895     0.038574     0.541772  Biso 1.000000     C
    C   1.0     0.155356     0.070147     0.578747  Biso 1.000000     C
    C   1.0     0.655452     0.070363     0.578677  Biso 1.000000     C
    C   1.0     0.123646     0.029728     0.669452  Biso 1.000000     C
    C   1.0     0.623739     0.029924     0.669381  Biso 1.000000     C
    C   1.0     0.068987     0.059244     0.703286  Biso 1.000000     C
    C   1.0     0.569110     0.059483     0.703219  Biso 1.000000     C
    C   1.0     0.044845     0.129737     0.646804  Biso 1.000000     C
    C   1.0     0.545002     0.130030     0.646737  Biso 1.000000     C
    C   1.0     0.076967     0.170448     0.556178  Biso 1.000000     C
    C   1.0     0.577136     0.170776     0.556119  Biso 1.000000     C
    C   1.0     0.131679     0.141247     0.522505  Biso 1.000000     C
    C   1.0     0.631824     0.141537     0.522443  Biso 1.000000     C
    C   1.0     0.485886     0.161259     0.683380  Biso 1.000000     C
    C   1.0     0.985727     0.161020     0.683442  Biso 1.000000     C
    N   1.0     0.447965     0.994755     0.536948  Biso 1.000000     N
    N   1.0     0.946729     0.994125     0.537670  Biso 1.000000     N
    N   1.0     0.372226     0.873906     0.628032  Biso 1.000000     N
    N   1.0     0.870682     0.873587     0.628714  Biso 1.000000     N
    N   1.0     0.327727     0.872918     0.507635  Biso 1.000000     N
    N   1.0     0.826535     0.872487     0.508063  Biso 1.000000     N
    N   1.0     0.052424     0.531468     0.463147  Biso 1.000000     N
    N   1.0     0.552019     0.531214     0.463002  Biso 1.000000     N
    N   1.0     0.127930     0.501287     0.372321  Biso 1.000000     N
    N   1.0     0.627804     0.501344     0.372231  Biso 1.000000     N
    N   1.0     0.172111     0.379774     0.493024  Biso 1.000000     N
    N   1.0     0.671967     0.379928     0.492981  Biso 1.000000     N
    N   1.0     0.283883     0.494614     0.537198  Biso 1.000000     N
    N   1.0     0.783921     0.494559     0.537142  Biso 1.000000     N
    N   1.0     0.314445     0.373841     0.628460  Biso 1.000000     N
    N   1.0     0.814370     0.373670     0.628442  Biso 1.000000     N
    N   1.0     0.418449     0.372695     0.508251  Biso 1.000000     N
    N   1.0     0.918439     0.372561     0.508290  Biso 1.000000     N
    N   1.0     0.215523     0.031562     0.463960  Biso 1.000000     N
    N   1.0     0.715485     0.031636     0.463941  Biso 1.000000     N
    N   1.0     0.185288     0.000000     0.372587  Biso 1.000000     N
    N   1.0     0.685228     0.000000     0.372676  Biso 1.000000     N
    N   1.0     0.081172     0.880199     0.492665  Biso 1.000000     N
    N   1.0     0.581201     0.880006     0.492813  Biso 1.000000     N
    O   1.0     0.318859     0.482801     0.044264  Biso 1.000000     O
    O   1.0     0.817554     0.482555     0.044464  Biso 1.000000     O
    O   1.0     0.320258     0.331760     0.092226  Biso 1.000000     O
    O   1.0     0.819957     0.331766     0.092088  Biso 1.000000     O
    O   1.0     0.370321     0.666438     0.645879  Biso 1.000000     O
    O   1.0     0.869893     0.666757     0.646017  Biso 1.000000     O
    O   1.0     0.295337     0.672016     0.755636  Biso 1.000000     O
    O   1.0     0.793974     0.671276     0.755694  Biso 1.000000     O
    O   1.0     0.413527     0.346716     0.713079  Biso 1.000000     O
    O   1.0     0.913464     0.346808     0.712970  Biso 1.000000     O
    O   1.0     0.378329     0.237001     0.856050  Biso 1.000000     O
    O   1.0     0.878087     0.237098     0.855930  Biso 1.000000     O
    O   1.0     0.276003     0.346866     0.371923  Biso 1.000000     O
    O   1.0     0.775874     0.347049     0.371785  Biso 1.000000     O
    O   1.0     0.346903     0.393899     0.235033  Biso 1.000000     O
    O   1.0     0.846219     0.393335     0.234707  Biso 1.000000     O
    O   1.0     0.182405     0.526412     0.955812  Biso 1.000000     O
    O   1.0     0.681610     0.526205     0.956229  Biso 1.000000     O
    O   1.0     0.180019     0.423293     0.908126  Biso 1.000000     O
    O   1.0     0.679688     0.423210     0.908318  Biso 1.000000     O
    O   1.0     0.130031     0.312082     0.354270  Biso 1.000000     O
    O   1.0     0.629390     0.311468     0.354699  Biso 1.000000     O
    O   1.0     0.205474     0.426926     0.244438  Biso 1.000000     O
    O   1.0     0.704579     0.426813     0.245047  Biso 1.000000     O
    O   1.0     0.086266     0.058974     0.287625  Biso 1.000000     O
    O   1.0     0.586311     0.058747     0.287668  Biso 1.000000     O
    O   1.0     0.121378     0.092158     0.144719  Biso 1.000000     O
    O   1.0     0.621529     0.091951     0.144755  Biso 1.000000     O
    O   1.0     0.224097     0.718348     0.628828  Biso 1.000000     O
    O   1.0     0.722882     0.717695     0.629527  Biso 1.000000     O
    O   1.0     0.153545     0.627947     0.765854  Biso 1.000000     O
    O   1.0     0.651867     0.627822     0.766408  Biso 1.000000     O
    O   1.0     0.158863     0.982756     0.044198  Biso 1.000000     O
    O   1.0     0.658878     0.982653     0.044349  Biso 1.000000     O
    O   1.0     0.133706     0.831822     0.091723  Biso 1.000000     O
    O   1.0     0.633688     0.831699     0.092024  Biso 1.000000     O
    O   1.0     0.307262     0.166628     0.646568  Biso 1.000000     O
    O   1.0     0.807062     0.166167     0.646625  Biso 1.000000     O
    O   1.0     0.328002     0.171461     0.756677  Biso 1.000000     O
    O   1.0     0.827918     0.171173     0.756597  Biso 1.000000     O
    O   1.0     0.231612     0.847000     0.712663  Biso 1.000000     O
    O   1.0     0.729882     0.846573     0.713246  Biso 1.000000     O
    O   1.0     0.195481     0.736937     0.855518  Biso 1.000000     O
    O   1.0     0.695062     0.736542     0.856071  Biso 1.000000     O
    O   1.0     0.038285     0.846365     0.371032  Biso 1.000000     O
    O   1.0     0.538268     0.846186     0.371203  Biso 1.000000     O
    O   1.0     0.034822     0.893397     0.234243  Biso 1.000000     O
    O   1.0     0.534793     0.893328     0.234405  Biso 1.000000     O
    O   1.0     0.341001     0.027029     0.956775  Biso 1.000000     O
    O   1.0     0.840957     0.026971     0.956857  Biso 1.000000     O
    O   1.0     0.366924     0.923745     0.909364  Biso 1.000000     O
    O   1.0     0.866851     0.923720     0.909394  Biso 1.000000     O
    O   1.0     0.192726     0.812460     0.354343  Biso 1.000000     O
    O   1.0     0.692691     0.812127     0.354505  Biso 1.000000     O
    O   1.0     0.171840     0.927347     0.244341  Biso 1.000000     O
    O   1.0     0.671849     0.927115     0.244531  Biso 1.000000     O
    O   1.0     0.268384     0.559159     0.287827  Biso 1.000000     O
    O   1.0     0.768345     0.559094     0.287870  Biso 1.000000     O
    O   1.0     0.304819     0.592620     0.144839  Biso 1.000000     O
    O   1.0     0.804394     0.592268     0.144967  Biso 1.000000     O
    O   1.0     0.461400     0.217319     0.629822  Biso 1.000000     O
    O   1.0     0.961310     0.217183     0.629844  Biso 1.000000     O
    O   1.0     0.465051     0.128019     0.766595  Biso 1.000000     O
    O   1.0     0.964841     0.127759     0.766655  Biso 1.000000     O
   Zn   1.0     0.291473     0.789319     0.647071  Biso 1.000000    Zn
   Zn   1.0     0.789741     0.788890     0.647761  Biso 1.000000    Zn
   Zn   1.0     0.298647     0.466368     0.160063  Biso 1.000000    Zn
   Zn   1.0     0.797246     0.465812     0.160437  Biso 1.000000    Zn
   Zn   1.0     0.208474     0.435520     0.353448  Biso 1.000000    Zn
   Zn   1.0     0.708430     0.435655     0.353555  Biso 1.000000    Zn
   Zn   1.0     0.202647     0.626031     0.840035  Biso 1.000000    Zn
   Zn   1.0     0.700954     0.625588     0.840593  Biso 1.000000    Zn
   Zn   1.0     0.385445     0.288818     0.647860  Biso 1.000000    Zn
   Zn   1.0     0.885411     0.288682     0.647927  Biso 1.000000    Zn
   Zn   1.0     0.120314     0.965807     0.160068  Biso 1.000000    Zn
   Zn   1.0     0.620324     0.965549     0.160270  Biso 1.000000    Zn
   Zn   1.0     0.114404     0.935978     0.352999  Biso 1.000000    Zn
   Zn   1.0     0.614399     0.935719     0.353196  Biso 1.000000    Zn
   Zn   1.0     0.379579     0.125920     0.840906  Biso 1.000000    Zn
   Zn   1.0     0.879407     0.125894     0.840950  Biso 1.000000    Zn
