#======================================================================

# CRYSTAL DATA

#----------------------------------------------------------------------

data_VESTA_phase_1


_pd_phase_name                         MOF
_cell_length_a                         19.67300
_cell_length_b                         24.25200
_cell_length_c                         15.38900
_cell_angle_alpha                      96.07900
_cell_angle_beta                       98.00100
_cell_angle_gamma                      113.54000
_symmetry_space_group_name_H-M         "P 1"
_symmetry_Int_Tables_number            1

loop_
_symmetry_equiv_pos_as_xyz
   "x, y, z"

loop_
   _atom_site_label
   _atom_site_occupancy
   _atom_site_fract_x
   _atom_site_fract_y
   _atom_site_fract_z
   _atom_site_adp_type
   _atom_site_B_iso_or_equiv
   _atom_site_type_symbol
    H   1.0     0.143384     0.497064     0.813463  Biso 1.000000     H
    H   1.0     0.143445     0.996946     0.813404  Biso 1.000000     H
    H   1.0     0.643398     0.497064     0.813462  Biso 1.000000     H
    H   1.0     0.643458     0.996946     0.813404  Biso 1.000000     H
    H   1.0     0.365268     0.026714     0.946719  Biso 1.000000     H
    H   1.0     0.365159     0.526576     0.946591  Biso 1.000000     H
    H   1.0     0.865282     0.026714     0.946720  Biso 1.000000     H
    H   1.0     0.865172     0.526575     0.946589  Biso 1.000000     H
    H   1.0     0.337047     0.417583     0.890602  Biso 1.000000     H
    H   1.0     0.337390     0.917774     0.890729  Biso 1.000000     H
    H   1.0     0.837059     0.417582     0.890601  Biso 1.000000     H
    H   1.0     0.837403     0.917775     0.890729  Biso 1.000000     H
    H   1.0     0.211087     0.349266     0.793765  Biso 1.000000     H
    H   1.0     0.211510     0.849355     0.793777  Biso 1.000000     H
    H   1.0     0.711099     0.349265     0.793763  Biso 1.000000     H
    H   1.0     0.711523     0.849354     0.793778  Biso 1.000000     H
    H   1.0     0.412021     0.003568     0.668293  Biso 1.000000     H
    H   1.0     0.411909     0.503702     0.668407  Biso 1.000000     H
    H   1.0     0.912033     0.003568     0.668292  Biso 1.000000     H
    H   1.0     0.911922     0.503701     0.668406  Biso 1.000000     H
    H   1.0     0.235716     0.062423     0.599297  Biso 1.000000     H
    H   1.0     0.235808     0.562739     0.599175  Biso 1.000000     H
    H   1.0     0.735729     0.062423     0.599295  Biso 1.000000     H
    H   1.0     0.735823     0.562740     0.599176  Biso 1.000000     H
    H   1.0     0.139685     0.454561     0.568524  Biso 1.000000     H
    H   1.0     0.139731     0.954206     0.568462  Biso 1.000000     H
    H   1.0     0.639699     0.454561     0.568524  Biso 1.000000     H
    H   1.0     0.639743     0.954206     0.568462  Biso 1.000000     H
    H   1.0     0.181591     0.370415     0.576050  Biso 1.000000     H
    H   1.0     0.181796     0.870129     0.575783  Biso 1.000000     H
    H   1.0     0.681604     0.370415     0.576046  Biso 1.000000     H
    H   1.0     0.681809     0.870129     0.575782  Biso 1.000000     H
    H   1.0     0.091175     0.324988     0.140824  Biso 1.000000     H
    H   1.0     0.091508     0.825008     0.140925  Biso 1.000000     H
    H   1.0     0.591187     0.324989     0.140825  Biso 1.000000     H
    H   1.0     0.591521     0.825009     0.140927  Biso 1.000000     H
    H   1.0     0.183558     0.201673     0.204583  Biso 1.000000     H
    H   1.0     0.183842     0.701659     0.204653  Biso 1.000000     H
    H   1.0     0.683570     0.201673     0.204585  Biso 1.000000     H
    H   1.0     0.683852     0.701658     0.204654  Biso 1.000000     H
    H   1.0     0.038523     0.341351     0.515077  Biso 1.000000     H
    H   1.0     0.038987     0.841423     0.515113  Biso 1.000000     H
    H   1.0     0.538523     0.341348     0.515076  Biso 1.000000     H
    H   1.0     0.538990     0.841423     0.515113  Biso 1.000000     H
    H   1.0     0.330695     0.231370     0.343523  Biso 1.000000     H
    H   1.0     0.331266     0.730874     0.343733  Biso 1.000000     H
    H   1.0     0.830708     0.231367     0.343523  Biso 1.000000     H
    H   1.0     0.831276     0.730874     0.343730  Biso 1.000000     H
    H   1.0     0.376215     0.347664     0.221991  Biso 1.000000     H
    H   1.0     0.376555     0.847712     0.222088  Biso 1.000000     H
    H   1.0     0.876228     0.347665     0.221990  Biso 1.000000     H
    H   1.0     0.876568     0.847712     0.222087  Biso 1.000000     H
    H   1.0     0.399205     0.195039     0.095362  Biso 1.000000     H
    H   1.0     0.399456     0.695067     0.095387  Biso 1.000000     H
    H   1.0     0.899218     0.195039     0.095362  Biso 1.000000     H
    H   1.0     0.899469     0.695067     0.095386  Biso 1.000000     H
    H   1.0     0.356593     0.003032     0.186555  Biso 1.000000     H
    H   1.0     0.356651     0.502913     0.186495  Biso 1.000000     H
    H   1.0     0.856606     0.003032     0.186555  Biso 1.000000     H
    H   1.0     0.856665     0.502914     0.186496  Biso 1.000000     H
    H   1.0     0.134879     0.473407     0.053370  Biso 1.000000     H
    H   1.0     0.134772     0.973271     0.053241  Biso 1.000000     H
    H   1.0     0.634892     0.473407     0.053369  Biso 1.000000     H
    H   1.0     0.634785     0.973270     0.053238  Biso 1.000000     H
    H   1.0     0.162656     0.082211     0.109235  Biso 1.000000     H
    H   1.0     0.162996     0.582400     0.109357  Biso 1.000000     H
    H   1.0     0.662668     0.082210     0.109231  Biso 1.000000     H
    H   1.0     0.663008     0.582400     0.109358  Biso 1.000000     H
    H   1.0     0.288536     0.150628     0.206185  Biso 1.000000     H
    H   1.0     0.288956     0.650715     0.206193  Biso 1.000000     H
    H   1.0     0.788548     0.150627     0.206183  Biso 1.000000     H
    H   1.0     0.788970     0.650716     0.206194  Biso 1.000000     H
    H   1.0     0.088131     0.496280     0.331550  Biso 1.000000     H
    H   1.0     0.088021     0.996412     0.331668  Biso 1.000000     H
    H   1.0     0.588144     0.496280     0.331551  Biso 1.000000     H
    H   1.0     0.588035     0.996411     0.331667  Biso 1.000000     H
    H   1.0     0.264231     0.437244     0.400790  Biso 1.000000     H
    H   1.0     0.264324     0.937557     0.400670  Biso 1.000000     H
    H   1.0     0.764245     0.437244     0.400790  Biso 1.000000     H
    H   1.0     0.764339     0.937558     0.400672  Biso 1.000000     H
    H   1.0     0.360311     0.045774     0.431502  Biso 1.000000     H
    H   1.0     0.360355     0.545423     0.431441  Biso 1.000000     H
    H   1.0     0.860325     0.045775     0.431500  Biso 1.000000     H
    H   1.0     0.860368     0.545423     0.431438  Biso 1.000000     H
    H   1.0     0.318246     0.129851     0.424174  Biso 1.000000     H
    H   1.0     0.318449     0.629568     0.423903  Biso 1.000000     H
    H   1.0     0.818259     0.129851     0.424173  Biso 1.000000     H
    H   1.0     0.818461     0.629568     0.423907  Biso 1.000000     H
    H   1.0     0.408533     0.174973     0.859042  Biso 1.000000     H
    H   1.0     0.408865     0.674990     0.859144  Biso 1.000000     H
    H   1.0     0.908546     0.174973     0.859043  Biso 1.000000     H
    H   1.0     0.908878     0.674990     0.859144  Biso 1.000000     H
    H   1.0     0.316199     0.298321     0.795312  Biso 1.000000     H
    H   1.0     0.316483     0.798306     0.795382  Biso 1.000000     H
    H   1.0     0.816211     0.298322     0.795315  Biso 1.000000     H
    H   1.0     0.816495     0.798306     0.795385  Biso 1.000000     H
    H   1.0     0.461072     0.158557     0.484855  Biso 1.000000     H
    H   1.0     0.461537     0.658632     0.484892  Biso 1.000000     H
    H   1.0     0.961073     0.158556     0.484855  Biso 1.000000     H
    H   1.0     0.961540     0.658632     0.484891  Biso 1.000000     H
    H   1.0     0.168786     0.269093     0.656240  Biso 1.000000     H
    H   1.0     0.169358     0.768596     0.656450  Biso 1.000000     H
    H   1.0     0.668799     0.269091     0.656241  Biso 1.000000     H
    H   1.0     0.669368     0.768597     0.656448  Biso 1.000000     H
    H   1.0     0.123488     0.152270     0.777877  Biso 1.000000     H
    H   1.0     0.123825     0.652316     0.777979  Biso 1.000000     H
    H   1.0     0.623502     0.152271     0.777877  Biso 1.000000     H
    H   1.0     0.623838     0.652315     0.777978  Biso 1.000000     H
    H   1.0     0.100584     0.304914     0.904579  Biso 1.000000     H
    H   1.0     0.100836     0.804942     0.904603  Biso 1.000000     H
    H   1.0     0.600597     0.304914     0.904579  Biso 1.000000     H
    H   1.0     0.600849     0.804941     0.904603  Biso 1.000000     H
    C   1.0     0.169243     0.418573     0.798337  Biso 1.000000     C
    C   1.0     0.169504     0.918554     0.798320  Biso 1.000000     C
    C   1.0     0.669255     0.418571     0.798335  Biso 1.000000     C
    C   1.0     0.669517     0.918554     0.798318  Biso 1.000000     C
    C   1.0     0.185632     0.479596     0.830362  Biso 1.000000     C
    C   1.0     0.185759     0.979550     0.830344  Biso 1.000000     C
    C   1.0     0.685645     0.479596     0.830358  Biso 1.000000     C
    C   1.0     0.685772     0.979551     0.830343  Biso 1.000000     C
    C   1.0     0.256381     0.018417     0.883186  Biso 1.000000     C
    C   1.0     0.256307     0.518403     0.883151  Biso 1.000000     C
    C   1.0     0.756394     0.018417     0.883184  Biso 1.000000     C
    C   1.0     0.756319     0.518402     0.883149  Biso 1.000000     C
    C   1.0     0.310615     0.495724     0.905090  Biso 1.000000     C
    C   1.0     0.310767     0.995821     0.905177  Biso 1.000000     C
    C   1.0     0.810628     0.495722     0.905088  Biso 1.000000     C
    C   1.0     0.810780     0.995821     0.905178  Biso 1.000000     C
    C   1.0     0.294475     0.434878     0.873635  Biso 1.000000     C
    C   1.0     0.294758     0.935003     0.873721  Biso 1.000000     C
    C   1.0     0.794487     0.434877     0.873632  Biso 1.000000     C
    C   1.0     0.794771     0.935003     0.873721  Biso 1.000000     C
    C   1.0     0.224388     0.396676     0.820023  Biso 1.000000     C
    C   1.0     0.224723     0.896744     0.820055  Biso 1.000000     C
    C   1.0     0.724400     0.396675     0.820020  Biso 1.000000     C
    C   1.0     0.724735     0.896744     0.820054  Biso 1.000000     C
    C   1.0     0.093868     0.376914     0.741473  Biso 1.000000     C
    C   1.0     0.094184     0.876820     0.741415  Biso 1.000000     C
    C   1.0     0.593877     0.376912     0.741474  Biso 1.000000     C
    C   1.0     0.594193     0.876817     0.741421  Biso 1.000000     C
    C   1.0     0.275263     0.084299     0.913931  Biso 1.000000     C
    C   1.0     0.275304     0.584303     0.913910  Biso 1.000000     C
    C   1.0     0.775275     0.084298     0.913936  Biso 1.000000     C
    C   1.0     0.775318     0.584302     0.913909  Biso 1.000000     C
    C   1.0     0.299194     0.431612     0.622770  Biso 1.000000     C
    C   1.0     0.299364     0.931401     0.622584  Biso 1.000000     C
    C   1.0     0.799206     0.431611     0.622773  Biso 1.000000     C
    C   1.0     0.799374     0.931401     0.622592  Biso 1.000000     C
    C   1.0     0.352489     0.492913     0.644839  Biso 1.000000     C
    C   1.0     0.352586     0.992730     0.644739  Biso 1.000000     C
    C   1.0     0.852503     0.492912     0.644836  Biso 1.000000     C
    C   1.0     0.852598     0.992729     0.644736  Biso 1.000000     C
    C   1.0     0.329912     0.039830     0.634583  Biso 1.000000     C
    C   1.0     0.329912     0.540053     0.634578  Biso 1.000000     C
    C   1.0     0.829924     0.039829     0.634591  Biso 1.000000     C
    C   1.0     0.829925     0.540052     0.634582  Biso 1.000000     C
    C   1.0     0.252783     0.025415     0.607391  Biso 1.000000     C
    C   1.0     0.252804     0.525704     0.607363  Biso 1.000000     C
    C   1.0     0.752796     0.025415     0.607387  Biso 1.000000     C
    C   1.0     0.752818     0.525704     0.607360  Biso 1.000000     C
    C   1.0     0.199440     0.465081     0.589025  Biso 1.000000     C
    C   1.0     0.199499     0.964769     0.588953  Biso 1.000000     C
    C   1.0     0.699454     0.465081     0.589025  Biso 1.000000     C
    C   1.0     0.699511     0.964769     0.588955  Biso 1.000000     C
    C   1.0     0.222479     0.417934     0.594165  Biso 1.000000     C
    C   1.0     0.222629     0.917663     0.593979  Biso 1.000000     C
    C   1.0     0.722492     0.417934     0.594164  Biso 1.000000     C
    C   1.0     0.722641     0.917663     0.593977  Biso 1.000000     C
    C   1.0     0.324844     0.381922     0.630746  Biso 1.000000     C
    C   1.0     0.325107     0.881748     0.630506  Biso 1.000000     C
    C   1.0     0.824861     0.381922     0.630729  Biso 1.000000     C
    C   1.0     0.825125     0.881750     0.630485  Biso 1.000000     C
    C   1.0     0.387405     0.104991     0.648771  Biso 1.000000     C
    C   1.0     0.387523     0.605169     0.648717  Biso 1.000000     C
    C   1.0     0.887426     0.104985     0.648749  Biso 1.000000     C
    C   1.0     0.887543     0.605164     0.648701  Biso 1.000000     C
    C   1.0     0.101608     0.289526     0.169866  Biso 1.000000     C
    C   1.0     0.101934     0.789542     0.169962  Biso 1.000000     C
    C   1.0     0.601620     0.289527     0.169867  Biso 1.000000     C
    C   1.0     0.601946     0.789541     0.169963  Biso 1.000000     C
    C   1.0     0.149654     0.227631     0.202361  Biso 1.000000     C
    C   1.0     0.149944     0.727622     0.202429  Biso 1.000000     C
    C   1.0     0.649666     0.227632     0.202364  Biso 1.000000     C
    C   1.0     0.649955     0.727621     0.202431  Biso 1.000000     C
    C   1.0     0.478337     0.315963     0.488952  Biso 1.000000     C
    C   1.0     0.478823     0.815864     0.489039  Biso 1.000000     C
    C   1.0     0.978349     0.315963     0.488953  Biso 1.000000     C
    C   1.0     0.978832     0.815864     0.489039  Biso 1.000000     C
    C   1.0     0.372970     0.260472     0.401145  Biso 1.000000     C
    C   1.0     0.373504     0.760078     0.401316  Biso 1.000000     C
    C   1.0     0.872982     0.260469     0.401146  Biso 1.000000     C
    C   1.0     0.873513     0.760078     0.401315  Biso 1.000000     C
    C   1.0     0.367769     0.307403     0.175760  Biso 1.000000     C
    C   1.0     0.368086     0.807455     0.175834  Biso 1.000000     C
    C   1.0     0.867781     0.307403     0.175760  Biso 1.000000     C
    C   1.0     0.868098     0.807454     0.175833  Biso 1.000000     C
    C   1.0     0.380504     0.230606     0.111618  Biso 1.000000     C
    C   1.0     0.380780     0.730647     0.111655  Biso 1.000000     C
    C   1.0     0.880516     0.230605     0.111617  Biso 1.000000     C
    C   1.0     0.880792     0.730646     0.111655  Biso 1.000000     C
    C   1.0     0.330540     0.081427     0.201641  Biso 1.000000     C
    C   1.0     0.330799     0.581408     0.201620  Biso 1.000000     C
    C   1.0     0.830552     0.081426     0.201639  Biso 1.000000     C
    C   1.0     0.830811     0.581407     0.201621  Biso 1.000000     C
    C   1.0     0.314282     0.020430     0.169615  Biso 1.000000     C
    C   1.0     0.314406     0.520383     0.169597  Biso 1.000000     C
    C   1.0     0.814294     0.020429     0.169613  Biso 1.000000     C
    C   1.0     0.814419     0.520383     0.169598  Biso 1.000000     C
    C   1.0     0.243731     0.481578     0.116807  Biso 1.000000     C
    C   1.0     0.243658     0.981565     0.116775  Biso 1.000000     C
    C   1.0     0.743744     0.481578     0.116809  Biso 1.000000     C
    C   1.0     0.743671     0.981564     0.116773  Biso 1.000000     C
    C   1.0     0.189274     0.004163     0.094783  Biso 1.000000     C
    C   1.0     0.189423     0.504258     0.094870  Biso 1.000000     C
    C   1.0     0.689287     0.004162     0.094781  Biso 1.000000     C
    C   1.0     0.689436     0.504258     0.094870  Biso 1.000000     C
    C   1.0     0.205286     0.064981     0.126240  Biso 1.000000     C
    C   1.0     0.205567     0.565104     0.126324  Biso 1.000000     C
    C   1.0     0.705299     0.064980     0.126237  Biso 1.000000     C
    C   1.0     0.705580     0.565104     0.126325  Biso 1.000000     C
    C   1.0     0.275322     0.103239     0.179907  Biso 1.000000     C
    C   1.0     0.275654     0.603305     0.179937  Biso 1.000000     C
    C   1.0     0.775334     0.103238     0.179905  Biso 1.000000     C
    C   1.0     0.775667     0.603305     0.179936  Biso 1.000000     C
    C   1.0     0.405863     0.123159     0.258544  Biso 1.000000     C
    C   1.0     0.406175     0.623063     0.258490  Biso 1.000000     C
    C   1.0     0.905873     0.123157     0.258543  Biso 1.000000     C
    C   1.0     0.906188     0.623062     0.258485  Biso 1.000000     C
    C   1.0     0.224729     0.415676     0.086059  Biso 1.000000     C
    C   1.0     0.224774     0.915683     0.086030  Biso 1.000000     C
    C   1.0     0.724744     0.415677     0.086052  Biso 1.000000     C
    C   1.0     0.724788     0.915681     0.086030  Biso 1.000000     C
    C   1.0     0.200679     0.068578     0.377374  Biso 1.000000     C
    C   1.0     0.200846     0.568369     0.377191  Biso 1.000000     C
    C   1.0     0.700693     0.068578     0.377368  Biso 1.000000     C
    C   1.0     0.700860     0.568369     0.377180  Biso 1.000000     C
    C   1.0     0.147456     0.007250     0.355220  Biso 1.000000     C
    C   1.0     0.147551     0.507068     0.355114  Biso 1.000000     C
    C   1.0     0.647469     0.007250     0.355224  Biso 1.000000     C
    C   1.0     0.647563     0.507068     0.355121  Biso 1.000000     C
    C   1.0     0.170129     0.459930     0.365390  Biso 1.000000     C
    C   1.0     0.170130     0.960151     0.365380  Biso 1.000000     C
    C   1.0     0.670141     0.459929     0.365377  Biso 1.000000     C
    C   1.0     0.670143     0.960150     0.365375  Biso 1.000000     C
    C   1.0     0.247237     0.474280     0.392600  Biso 1.000000     C
    C   1.0     0.247258     0.974565     0.392575  Biso 1.000000     C
    C   1.0     0.747249     0.474279     0.392603  Biso 1.000000     C
    C   1.0     0.747272     0.974565     0.392575  Biso 1.000000     C
    C   1.0     0.300543     0.035211     0.411008  Biso 1.000000     C
    C   1.0     0.300600     0.534903     0.410938  Biso 1.000000     C
    C   1.0     0.800557     0.035211     0.411007  Biso 1.000000     C
    C   1.0     0.800613     0.534902     0.410934  Biso 1.000000     C
    C   1.0     0.277413     0.082317     0.405979  Biso 1.000000     C
    C   1.0     0.277562     0.582048     0.405788  Biso 1.000000     C
    C   1.0     0.777427     0.082316     0.405980  Biso 1.000000     C
    C   1.0     0.777574     0.582048     0.405791  Biso 1.000000     C
    C   1.0     0.174937     0.118230     0.369453  Biso 1.000000     C
    C   1.0     0.175199     0.618059     0.369198  Biso 1.000000     C
    C   1.0     0.674947     0.118229     0.369459  Biso 1.000000     C
    C   1.0     0.675202     0.618057     0.369227  Biso 1.000000     C
    C   1.0     0.112527     0.394811     0.351235  Biso 1.000000     C
    C   1.0     0.112639     0.894990     0.351197  Biso 1.000000     C
    C   1.0     0.612526     0.394817     0.351268  Biso 1.000000     C
    C   1.0     0.612649     0.894991     0.351206  Biso 1.000000     C
    C   1.0     0.398108     0.210439     0.830004  Biso 1.000000     C
    C   1.0     0.398432     0.710452     0.830102  Biso 1.000000     C
    C   1.0     0.898119     0.210439     0.830005  Biso 1.000000     C
    C   1.0     0.898444     0.710452     0.830103  Biso 1.000000     C
    C   1.0     0.350096     0.272357     0.797535  Biso 1.000000     C
    C   1.0     0.350387     0.772348     0.797605  Biso 1.000000     C
    C   1.0     0.850107     0.272358     0.797537  Biso 1.000000     C
    C   1.0     0.850398     0.772347     0.797607  Biso 1.000000     C
    C   1.0     0.021229     0.184111     0.510931  Biso 1.000000     C
    C   1.0     0.021715     0.684013     0.511018  Biso 1.000000     C
    C   1.0     0.521240     0.184111     0.510931  Biso 1.000000     C
    C   1.0     0.521724     0.684013     0.511018  Biso 1.000000     C
    C   1.0     0.126548     0.239892     0.598656  Biso 1.000000     C
    C   1.0     0.127083     0.739497     0.598827  Biso 1.000000     C
    C   1.0     0.626560     0.239889     0.598657  Biso 1.000000     C
    C   1.0     0.627092     0.739497     0.598826  Biso 1.000000     C
    C   1.0     0.131957     0.192527     0.824132  Biso 1.000000     C
    C   1.0     0.132273     0.692577     0.824209  Biso 1.000000     C
    C   1.0     0.631970     0.192527     0.824131  Biso 1.000000     C
    C   1.0     0.632284     0.692576     0.824208  Biso 1.000000     C
    C   1.0     0.119262     0.269335     0.888311  Biso 1.000000     C
    C   1.0     0.119538     0.769376     0.888349  Biso 1.000000     C
    C   1.0     0.619274     0.269335     0.888310  Biso 1.000000     C
    C   1.0     0.619550     0.769375     0.888348  Biso 1.000000     C
    N   1.0     0.096527     0.220558     0.251014  Biso 1.000000     N
    N   1.0     0.096815     0.720547     0.251085  Biso 1.000000     N
    N   1.0     0.596537     0.220557     0.251015  Biso 1.000000     N
    N   1.0     0.596823     0.720545     0.251084  Biso 1.000000     N
    N   1.0     0.065483     0.260368     0.229625  Biso 1.000000     N
    N   1.0     0.065797     0.760380     0.229710  Biso 1.000000     N
    N   1.0     0.565494     0.260368     0.229626  Biso 1.000000     N
    N   1.0     0.565807     0.760380     0.229710  Biso 1.000000     N
    N   1.0     0.154843     0.270375     0.150511  Biso 1.000000     N
    N   1.0     0.155155     0.770379     0.150593  Biso 1.000000     N
    N   1.0     0.654855     0.270376     0.150514  Biso 1.000000     N
    N   1.0     0.655167     0.770379     0.150596  Biso 1.000000     N
    N   1.0     0.425025     0.309082     0.537210  Biso 1.000000     N
    N   1.0     0.425498     0.808817     0.537326  Biso 1.000000     N
    N   1.0     0.925036     0.309082     0.537210  Biso 1.000000     N
    N   1.0     0.925506     0.808818     0.537325  Biso 1.000000     N
    N   1.0     0.356588     0.273353     0.480098  Biso 1.000000     N
    N   1.0     0.357107     0.772900     0.480281  Biso 1.000000     N
    N   1.0     0.856599     0.273350     0.480098  Biso 1.000000     N
    N   1.0     0.857116     0.772901     0.480280  Biso 1.000000     N
    N   1.0     0.448124     0.286536     0.403554  Biso 1.000000     N
    N   1.0     0.448640     0.786360     0.403671  Biso 1.000000     N
    N   1.0     0.948135     0.286535     0.403556  Biso 1.000000     N
    N   1.0     0.948649     0.786360     0.403671  Biso 1.000000     N
    N   1.0     0.409611     0.274828     0.185254  Biso 1.000000     N
    N   1.0     0.409893     0.774848     0.185317  Biso 1.000000     N
    N   1.0     0.909623     0.274827     0.185253  Biso 1.000000     N
    N   1.0     0.909904     0.774847     0.185316  Biso 1.000000     N
    N   1.0     0.323389     0.235095     0.059504  Biso 1.000000     N
    N   1.0     0.323697     0.735177     0.059540  Biso 1.000000     N
    N   1.0     0.823401     0.235095     0.059503  Biso 1.000000     N
    N   1.0     0.823710     0.735176     0.059538  Biso 1.000000     N
    N   1.0     0.314839     0.284588     0.101093  Biso 1.000000     N
    N   1.0     0.315173     0.784678     0.101150  Biso 1.000000     N
    N   1.0     0.814852     0.284588     0.101091  Biso 1.000000     N
    N   1.0     0.815184     0.784677     0.101148  Biso 1.000000     N
    N   1.0     0.403228     0.279434     0.748882  Biso 1.000000     N
    N   1.0     0.403517     0.779423     0.748955  Biso 1.000000     N
    N   1.0     0.903237     0.279432     0.748881  Biso 1.000000     N
    N   1.0     0.903525     0.779421     0.748954  Biso 1.000000     N
    N   1.0     0.434244     0.239600     0.770256  Biso 1.000000     N
    N   1.0     0.434561     0.739612     0.770345  Biso 1.000000     N
    N   1.0     0.934254     0.239599     0.770255  Biso 1.000000     N
    N   1.0     0.934570     0.739610     0.770343  Biso 1.000000     N
    N   1.0     0.344885     0.229601     0.849371  Biso 1.000000     N
    N   1.0     0.345197     0.729603     0.849454  Biso 1.000000     N
    N   1.0     0.844898     0.229602     0.849374  Biso 1.000000     N
    N   1.0     0.845209     0.729603     0.849457  Biso 1.000000     N
    N   1.0     0.074553     0.191153     0.462645  Biso 1.000000     N
    N   1.0     0.075027     0.690889     0.462761  Biso 1.000000     N
    N   1.0     0.574564     0.191152     0.462646  Biso 1.000000     N
    N   1.0     0.575035     0.690888     0.462760  Biso 1.000000     N
    N   1.0     0.142945     0.227066     0.519692  Biso 1.000000     N
    N   1.0     0.143465     0.726615     0.519875  Biso 1.000000     N
    N   1.0     0.642957     0.227064     0.519693  Biso 1.000000     N
    N   1.0     0.643474     0.726615     0.519873  Biso 1.000000     N
    N   1.0     0.051411     0.213615     0.596299  Biso 1.000000     N
    N   1.0     0.051929     0.713437     0.596416  Biso 1.000000     N
    N   1.0     0.551423     0.213614     0.596299  Biso 1.000000     N
    N   1.0     0.551938     0.713438     0.596416  Biso 1.000000     N
    N   1.0     0.090151     0.225134     0.814649  Biso 1.000000     N
    N   1.0     0.090432     0.725153     0.814713  Biso 1.000000     N
    N   1.0     0.590162     0.225134     0.814648  Biso 1.000000     N
    N   1.0     0.590443     0.725152     0.814713  Biso 1.000000     N
    N   1.0     0.176344     0.264805     0.940428  Biso 1.000000     N
    N   1.0     0.176652     0.764886     0.940465  Biso 1.000000     N
    N   1.0     0.676357     0.264805     0.940427  Biso 1.000000     N
    N   1.0     0.676664     0.764885     0.940464  Biso 1.000000     N
    N   1.0     0.184870     0.215304     0.898817  Biso 1.000000     N
    N   1.0     0.185201     0.715393     0.898877  Biso 1.000000     N
    N   1.0     0.684883     0.215305     0.898816  Biso 1.000000     N
    N   1.0     0.685213     0.715392     0.898876  Biso 1.000000     N
    O   1.0     0.079102     0.321662     0.714610  Biso 1.000000     O
    O   1.0     0.079547     0.821588     0.714592  Biso 1.000000     O
    O   1.0     0.579112     0.321660     0.714612  Biso 1.000000     O
    O   1.0     0.579560     0.821587     0.714593  Biso 1.000000     O
    O   1.0     0.046687     0.400959     0.722663  Biso 1.000000     O
    O   1.0     0.046943     0.900798     0.722560  Biso 1.000000     O
    O   1.0     0.546697     0.400956     0.722661  Biso 1.000000     O
    O   1.0     0.546953     0.900795     0.722558  Biso 1.000000     O
    O   1.0     0.221924     0.102303     0.892685  Biso 1.000000     O
    O   1.0     0.222025     0.602375     0.892704  Biso 1.000000     O
    O   1.0     0.721938     0.102304     0.892684  Biso 1.000000     O
    O   1.0     0.722038     0.602374     0.892704  Biso 1.000000     O
    O   1.0     0.340287     0.120661     0.956238  Biso 1.000000     O
    O   1.0     0.340357     0.620617     0.956200  Biso 1.000000     O
    O   1.0     0.840301     0.120661     0.956234  Biso 1.000000     O
    O   1.0     0.840370     0.620615     0.956199  Biso 1.000000     O
    O   1.0     0.279085     0.326369     0.596426  Biso 1.000000     O
    O   1.0     0.279451     0.826194     0.596084  Biso 1.000000     O
    O   1.0     0.779095     0.326367     0.596431  Biso 1.000000     O
    O   1.0     0.779459     0.826192     0.596094  Biso 1.000000     O
    O   1.0     0.391866     0.397557     0.674006  Biso 1.000000     O
    O   1.0     0.392114     0.897430     0.673873  Biso 1.000000     O
    O   1.0     0.891874     0.397555     0.674015  Biso 1.000000     O
    O   1.0     0.892121     0.897428     0.673885  Biso 1.000000     O
    O   1.0     0.450532     0.119713     0.703963  Biso 1.000000     O
    O   1.0     0.450606     0.619793     0.703936  Biso 1.000000     O
    O   1.0     0.950538     0.119713     0.703973  Biso 1.000000     O
    O   1.0     0.950615     0.619792     0.703944  Biso 1.000000     O
    O   1.0     0.373607     0.142748     0.607456  Biso 1.000000     O
    O   1.0     0.373879     0.642969     0.607351  Biso 1.000000     O
    O   1.0     0.873614     0.142751     0.607469  Biso 1.000000     O
    O   1.0     0.873890     0.642972     0.607363  Biso 1.000000     O
    O   1.0     0.420504     0.178391     0.285373  Biso 1.000000     O
    O   1.0     0.420948     0.678317     0.285348  Biso 1.000000     O
    O   1.0     0.920516     0.178389     0.285375  Biso 1.000000     O
    O   1.0     0.920960     0.678315     0.285353  Biso 1.000000     O
    O   1.0     0.453103     0.099179     0.277396  Biso 1.000000     O
    O   1.0     0.453357     0.599017     0.277289  Biso 1.000000     O
    O   1.0     0.953112     0.099176     0.277395  Biso 1.000000     O
    O   1.0     0.953366     0.599015     0.277290  Biso 1.000000     O
    O   1.0     0.278010     0.397604     0.107258  Biso 1.000000     O
    O   1.0     0.278112     0.897677     0.107279  Biso 1.000000     O
    O   1.0     0.778022     0.397603     0.107261  Biso 1.000000     O
    O   1.0     0.778126     0.897676     0.107278  Biso 1.000000     O
    O   1.0     0.159679     0.379364     0.043760  Biso 1.000000     O
    O   1.0     0.159750     0.879321     0.043726  Biso 1.000000     O
    O   1.0     0.659692     0.379363     0.043762  Biso 1.000000     O
    O   1.0     0.659764     0.879319     0.043725  Biso 1.000000     O
    O   1.0     0.220595     0.173786     0.403868  Biso 1.000000     O
    O   1.0     0.220956     0.673612     0.403524  Biso 1.000000     O
    O   1.0     0.720609     0.173786     0.403862  Biso 1.000000     O
    O   1.0     0.720972     0.673613     0.403512  Biso 1.000000     O
    O   1.0     0.107930     0.102548     0.326083  Biso 1.000000     O
    O   1.0     0.108171     0.602420     0.325959  Biso 1.000000     O
    O   1.0     0.607943     0.102548     0.326080  Biso 1.000000     O
    O   1.0     0.608187     0.602422     0.325946  Biso 1.000000     O
    O   1.0     0.049433     0.380188     0.296037  Biso 1.000000     O
    O   1.0     0.049510     0.880266     0.296006  Biso 1.000000     O
    O   1.0     0.549452     0.380184     0.296025  Biso 1.000000     O
    O   1.0     0.549526     0.880263     0.296003  Biso 1.000000     O
    O   1.0     0.126167     0.357018     0.392622  Biso 1.000000     O
    O   1.0     0.126441     0.857234     0.392510  Biso 1.000000     O
    O   1.0     0.626188     0.357013     0.392605  Biso 1.000000     O
    O   1.0     0.626459     0.857233     0.392506  Biso 1.000000     O
   Zn   1.0     0.495719     0.287953     0.292516  Biso 1.000000    Zn
   Zn   1.0     0.496056     0.788002     0.292521  Biso 1.000000    Zn
   Zn   1.0     0.995727     0.287954     0.292518  Biso 1.000000    Zn
   Zn   1.0     0.996064     0.788002     0.292522  Biso 1.000000    Zn
   Zn   1.0     0.442988     0.341861     0.669948  Biso 1.000000    Zn
   Zn   1.0     0.443233     0.841748     0.669924  Biso 1.000000    Zn
   Zn   1.0     0.942995     0.341859     0.669947  Biso 1.000000    Zn
   Zn   1.0     0.943238     0.841746     0.669923  Biso 1.000000    Zn
   Zn   1.0     0.226929     0.308377     0.066646  Biso 1.000000    Zn
   Zn   1.0     0.227217     0.808449     0.066691  Biso 1.000000    Zn
   Zn   1.0     0.726941     0.308377     0.066647  Biso 1.000000    Zn
   Zn   1.0     0.727229     0.808448     0.066691  Biso 1.000000    Zn
   Zn   1.0     0.003989     0.211977     0.707444  Biso 1.000000    Zn
   Zn   1.0     0.004328     0.712025     0.707450  Biso 1.000000    Zn
   Zn   1.0     0.503997     0.211978     0.707446  Biso 1.000000    Zn
   Zn   1.0     0.504335     0.712025     0.707452  Biso 1.000000    Zn
   Zn   1.0     0.056813     0.158229     0.330044  Biso 1.000000    Zn
   Zn   1.0     0.057054     0.658119     0.330019  Biso 1.000000    Zn
   Zn   1.0     0.556821     0.158227     0.330043  Biso 1.000000    Zn
   Zn   1.0     0.557061     0.658116     0.330018  Biso 1.000000    Zn
   Zn   1.0     0.272823     0.191533     0.933278  Biso 1.000000    Zn
   Zn   1.0     0.273107     0.691602     0.933322  Biso 1.000000    Zn
   Zn   1.0     0.772835     0.191533     0.933278  Biso 1.000000    Zn
   Zn   1.0     0.773118     0.691601     0.933322  Biso 1.000000    Zn
   Zn   1.0     0.249758     0.250215     0.499953  Biso 1.000000    Zn
   Zn   1.0     0.250296     0.749752     0.500018  Biso 1.000000    Zn
   Zn   1.0     0.749771     0.250214     0.499953  Biso 1.000000    Zn
   Zn   1.0     0.750305     0.749753     0.500017  Biso 1.000000    Zn
