#======================================================================

# CRYSTAL DATA

#----------------------------------------------------------------------

data_VESTA_phase_1


_pd_phase_name                         MOF
_cell_length_a                         15.02600
_cell_length_b                         14.00100
_cell_length_c                         14.74100
_cell_angle_alpha                      62.37200
_cell_angle_beta                       59.45100
_cell_angle_gamma                      57.63600
_symmetry_space_group_name_H-M         "P 1"
_symmetry_Int_Tables_number            1

loop_
_symmetry_equiv_pos_as_xyz
   "x, y, z"

loop_
   _atom_site_label
   _atom_site_occupancy
   _atom_site_fract_x
   _atom_site_fract_y
   _atom_site_fract_z
   _atom_site_adp_type
   _atom_site_B_iso_or_equiv
   _atom_site_type_symbol
    H   1.0     0.656852     0.277287     0.270960  Biso 1.000000     H
    H   1.0     0.799041     0.148541     0.362875  Biso 1.000000     H
    H   1.0     0.809721     0.129526     0.986200  Biso 1.000000     H
    H   1.0     0.697919     0.430425     0.486075  Biso 1.000000     H
    H   1.0     0.559160     0.560237     0.388585  Biso 1.000000     H
    H   1.0     0.155235     0.912860     0.846598  Biso 1.000000     H
    H   1.0     0.205430     0.222997     0.227375  Biso 1.000000     H
    H   1.0     0.310443     0.352177     0.135049  Biso 1.000000     H
    H   1.0     0.925925     0.369684     0.514011  Biso 1.000000     H
    H   1.0     0.614326     0.069607     0.000000  Biso 1.000000     H
    H   1.0     0.508159     0.939420     0.111898  Biso 1.000000     H
    H   1.0     0.914324     0.588477     0.652609  Biso 1.000000     H
    H   1.0     0.343196     0.722744     0.728905  Biso 1.000000     H
    H   1.0     0.201016     0.851496     0.636979  Biso 1.000000     H
    H   1.0     0.190297     0.870473     0.013692  Biso 1.000000     H
    H   1.0     0.302141     0.569616     0.513773  Biso 1.000000     H
    H   1.0     0.440885     0.439795     0.611280  Biso 1.000000     H
    H   1.0     0.844782     0.087138     0.153295  Biso 1.000000     H
    H   1.0     0.794620     0.777038     0.772476  Biso 1.000000     H
    H   1.0     0.689610     0.647853     0.864819  Biso 1.000000     H
    H   1.0     0.074127     0.630332     0.485862  Biso 1.000000     H
    H   1.0     0.385723     0.930432    -0.014274  Biso 1.000000     H
    H   1.0     0.491887     0.060624     0.887933  Biso 1.000000     H
    H   1.0     0.085731     0.411535     0.347265  Biso 1.000000     H
    C   1.0     0.834558     0.202204     0.493046  Biso 1.000000     C
    C   1.0     0.756853     0.281439     0.430923  Biso 1.000000     C
    C   1.0     0.667667     0.310032     0.317240  Biso 1.000000     C
    C   1.0     0.957937     0.046689     0.809529  Biso 1.000000     C
    C   1.0     0.980613     0.023994     0.906791  Biso 1.000000     C
    C   1.0     0.746565     0.238372     0.368984  Biso 1.000000     C
    C   1.0     0.510830     0.500786     0.272509  Biso 1.000000     C
    C   1.0     0.599338     0.425816     0.325054  Biso 1.000000     C
    C   1.0     0.892625     0.073231     0.993150  Biso 1.000000     C
    C   1.0     0.689557     0.397888     0.437692  Biso 1.000000     C
    C   1.0     0.612131     0.469912     0.384016  Biso 1.000000     C
    C   1.0     0.088010     0.950622     0.914148  Biso 1.000000     C
    C   1.0     0.529683     0.298281     0.006197  Biso 1.000000     C
    C   1.0     0.469171     0.218946     0.068200  Biso 1.000000     C
    C   1.0     0.295163     0.190211     0.181487  Biso 1.000000     C
    C   1.0     0.814172     0.453797     0.690081  Biso 1.000000     C
    C   1.0     0.911402     0.476311     0.592942  Biso 1.000000     C
    C   1.0     0.353965     0.262106     0.129530  Biso 1.000000     C
    C   1.0     0.284631     0.998780     0.227387  Biso 1.000000     C
    C   1.0     0.350512     0.074101     0.174451  Biso 1.000000     C
    C   1.0     0.959304     0.426324     0.506932  Biso 1.000000     C
    C   1.0     0.525131     0.102226     0.062108  Biso 1.000000     C
    C   1.0     0.466211     0.029995     0.115930  Biso 1.000000     C
    C   1.0     0.952617     0.550099     0.585367  Biso 1.000000     C
    C   1.0     0.165506     0.797841     0.506800  Biso 1.000000     C
    C   1.0     0.243204     0.718600     0.568928  Biso 1.000000     C
    C   1.0     0.332381     0.690000     0.682625  Biso 1.000000     C
    C   1.0     0.042089     0.953321     0.190354  Biso 1.000000     C
    C   1.0     0.019406     0.976006     0.093099  Biso 1.000000     C
    C   1.0     0.253491     0.761665     0.630871  Biso 1.000000     C
    C   1.0     0.489203     0.499237     0.727372  Biso 1.000000     C
    C   1.0     0.400706     0.574214     0.674815  Biso 1.000000     C
    C   1.0     0.107393     0.926768     0.006741  Biso 1.000000     C
    C   1.0     0.310496     0.602149     0.562163  Biso 1.000000     C
    C   1.0     0.387918     0.530122     0.615845  Biso 1.000000     C
    C   1.0     0.912008     0.049376     0.085744  Biso 1.000000     C
    C   1.0     0.470371     0.701752     0.993663  Biso 1.000000     C
    C   1.0     0.530880     0.781089     0.931657  Biso 1.000000     C
    C   1.0     0.704887     0.809827     0.818361  Biso 1.000000     C
    C   1.0     0.185876     0.546225     0.309788  Biso 1.000000     C
    C   1.0     0.088650     0.523705     0.406931  Biso 1.000000     C
    C   1.0     0.646087     0.737928     0.870329  Biso 1.000000     C
    C   1.0     0.715417     0.001263     0.772444  Biso 1.000000     C
    C   1.0     0.649536     0.925939     0.825389  Biso 1.000000     C
    C   1.0     0.040749     0.573690     0.492942  Biso 1.000000     C
    C   1.0     0.474918     0.897812     0.937739  Biso 1.000000     C
    C   1.0     0.533836     0.970046     0.883907  Biso 1.000000     C
    C   1.0     0.047438     0.449914     0.414508  Biso 1.000000     C
    O   1.0     0.907681     0.101429     0.475133  Biso 1.000000     O
    O   1.0     0.828270     0.230353     0.567900  Biso 1.000000     O
    O   1.0     0.502951     0.451209     0.224378  Biso 1.000000     O
    O   1.0     0.858843     0.109041     0.807253  Biso 1.000000     O
    O   1.0     0.452393     0.605434     0.281335  Biso 1.000000     O
    O   1.0     0.039705     0.997509     0.733067  Biso 1.000000     O
    O   1.0     0.483940     0.399288     0.023820  Biso 1.000000     O
    O   1.0     0.626558     0.269899     0.931908  Biso 1.000000     O
    O   1.0     0.179353     0.048099     0.275898  Biso 1.000000     O
    O   1.0     0.775143     0.391364     0.692281  Biso 1.000000     O
    O   1.0     0.339569     0.894126     0.218553  Biso 1.000000     O
    O   1.0     0.770499     0.502945     0.766583  Biso 1.000000     O
    O   1.0     0.092375     0.898610     0.524723  Biso 1.000000     O
    O   1.0     0.171784     0.769687     0.431955  Biso 1.000000     O
    O   1.0     0.497082     0.548813     0.775507  Biso 1.000000     O
    O   1.0     0.141186     0.890973     0.192622  Biso 1.000000     O
    O   1.0     0.547633     0.394587     0.718555  Biso 1.000000     O
    O   1.0     0.960328     0.002513     0.266812  Biso 1.000000     O
    O   1.0     0.516125     0.600738     0.976051  Biso 1.000000     O
    O   1.0     0.373497     0.730126     0.067956  Biso 1.000000     O
    O   1.0     0.820695     0.951943     0.723935  Biso 1.000000     O
    O   1.0     0.224889     0.608681     0.307574  Biso 1.000000     O
    O   1.0     0.660481     0.105915     0.781284  Biso 1.000000     O
    O   1.0     0.229555     0.497066     0.233292  Biso 1.000000     O
   Cd   1.0     0.950205     0.026529     0.635347  Biso 1.000000    Cd
   Cd   1.0     0.612434     0.473868     0.864384  Biso 1.000000    Cd
   Cd   1.0     0.049847     0.973506     0.364509  Biso 1.000000    Cd
   Cd   1.0     0.387613     0.526164     0.135483  Biso 1.000000    Cd
   Cd   1.0     0.705292     0.250256     0.749798  Biso 1.000000    Cd
   Cd   1.0     0.294752     0.749779     0.250061  Biso 1.000000    Cd
