#======================================================================

# CRYSTAL DATA

#----------------------------------------------------------------------

data_VESTA_phase_1


_pd_phase_name                         MOF
_cell_length_a                         13.59000
_cell_length_b                         13.59600
_cell_length_c                         13.60400
_cell_angle_alpha                      87.24800
_cell_angle_beta                       87.32000
_cell_angle_gamma                      87.46700
_symmetry_space_group_name_H-M         "P 1"
_symmetry_Int_Tables_number            1

loop_
_symmetry_equiv_pos_as_xyz
   "x, y, z"

loop_
   _atom_site_label
   _atom_site_occupancy
   _atom_site_fract_x
   _atom_site_fract_y
   _atom_site_fract_z
   _atom_site_adp_type
   _atom_site_B_iso_or_equiv
   _atom_site_type_symbol
    H   1.0     0.998351     0.435729     0.665300  Biso 1.000000     H
    H   1.0     0.666962     0.000000     0.434722  Biso 1.000000     H
    H   1.0     0.432936     0.666697     0.000000  Biso 1.000000     H
    H   1.0     0.567394     0.001576     0.334755  Biso 1.000000     H
    H   1.0     0.001103     0.336302     0.565730  Biso 1.000000     H
    H   1.0     0.333046     0.566598     0.000715  Biso 1.000000     H
    H   1.0    -0.001769     0.567557     0.335165  Biso 1.000000     H
    H   1.0     0.336423     0.001443     0.565455  Biso 1.000000     H
    H   1.0     0.564328     0.336789    -0.000365  Biso 1.000000     H
    H   1.0     0.435399     0.000000     0.664765  Biso 1.000000     H
    H   1.0     0.000000     0.666704     0.434457  Biso 1.000000     H
    H   1.0     0.663422     0.436049     0.000000  Biso 1.000000     H
    H   1.0     0.016430     0.737550     0.736554  Biso 1.000000     H
    H   1.0     0.737500     0.015755     0.736945  Biso 1.000000     H
    H   1.0     0.735445     0.738065     0.015895  Biso 1.000000     H
    H   1.0     0.264943     0.987691     0.263439  Biso 1.000000     H
    H   1.0     0.983398     0.265389     0.263994  Biso 1.000000     H
    H   1.0     0.262312     0.264239     0.983720  Biso 1.000000     H
    C   1.0     0.006454     0.551475     0.816924  Biso 1.000000     C
    C   1.0     0.002301     0.512281     0.638960  Biso 1.000000     C
    C   1.0     0.007577     0.582746     0.709963  Biso 1.000000     C
    C   1.0     0.818340     0.007290     0.551057  Biso 1.000000     C
    C   1.0     0.640427     0.003429     0.511206  Biso 1.000000     C
    C   1.0     0.711296     0.007999     0.582033  Biso 1.000000     C
    C   1.0     0.549555     0.818399     0.008021  Biso 1.000000     C
    C   1.0     0.509511     0.640411     0.003635  Biso 1.000000     C
    C   1.0     0.580377     0.711426     0.008505  Biso 1.000000     C
    C   1.0     0.450761     0.995320     0.183169  Biso 1.000000     C
    C   1.0     0.490751     0.998832     0.361078  Biso 1.000000     C
    C   1.0     0.419965     0.994627     0.290116  Biso 1.000000     C
    C   1.0     0.993172     0.184797     0.449681  Biso 1.000000     C
    C   1.0     0.997259     0.362746     0.489255  Biso 1.000000     C
    C   1.0     0.992020     0.291819     0.418709  Biso 1.000000     C
    C   1.0     0.181557     0.449923     0.993067  Biso 1.000000     C
    C   1.0     0.359522     0.490144     0.997290  Biso 1.000000     C
    C   1.0     0.288615     0.419203     0.992162  Biso 1.000000     C
    C   1.0     0.991171     0.451363     0.183641  Biso 1.000000     C
    C   1.0     0.995808     0.490894     0.361495  Biso 1.000000     C
    C   1.0     0.990845     0.420297     0.290569  Biso 1.000000     C
    C   1.0     0.184730     0.995344     0.449481  Biso 1.000000     C
    C   1.0     0.362767     0.998789     0.488904  Biso 1.000000     C
    C   1.0     0.291668     0.994614     0.418310  Biso 1.000000     C
    C   1.0     0.448784     0.184745     0.992143  Biso 1.000000     C
    C   1.0     0.487693     0.362826     0.996714  Biso 1.000000     C
    C   1.0     0.417228     0.291515     0.991654  Biso 1.000000     C
    C   1.0     0.551042     0.007858     0.816709  Biso 1.000000     C
    C   1.0     0.512103     0.003722     0.638678  Biso 1.000000     C
    C   1.0     0.582556     0.008274     0.709888  Biso 1.000000     C
    C   1.0     0.008992     0.818176     0.550447  Biso 1.000000     C
    C   1.0     0.004031     0.640285     0.511053  Biso 1.000000     C
    C   1.0     0.009050     0.711189     0.581667  Biso 1.000000     C
    C   1.0     0.815338     0.551903     0.007320  Biso 1.000000     C
    C   1.0     0.637210     0.512591     0.003236  Biso 1.000000     C
    C   1.0     0.708441     0.583170     0.008074  Biso 1.000000     C
    C   1.0     0.001779     0.539267     0.537930  Biso 1.000000     C
    C   1.0     0.012115     0.682663     0.681580  Biso 1.000000     C
    C   1.0     0.539275     0.002611     0.537753  Biso 1.000000     C
    C   1.0     0.682634     0.011720     0.681819  Biso 1.000000     C
    C   1.0     0.536191     0.539415     0.002116  Biso 1.000000     C
    C   1.0     0.680297     0.683062     0.011875  Biso 1.000000     C
    C   1.0     0.463854     0.999723     0.462080  Biso 1.000000     C
    C   1.0     0.319980     0.991324     0.318447  Biso 1.000000     C
    C   1.0     0.997886     0.463858     0.462438  Biso 1.000000     C
    C   1.0     0.987646     0.320322     0.318925  Biso 1.000000     C
    C   1.0     0.460637     0.463721     0.998332  Biso 1.000000     C
    C   1.0     0.317211     0.319442     0.988055  Biso 1.000000     C
    O   1.0     0.024502     0.617355     0.876830  Biso 1.000000     O
    O   1.0     0.986867     0.461952     0.840112  Biso 1.000000     O
    O   1.0     0.878339     0.025414     0.616883  Biso 1.000000     O
    O   1.0     0.841451     0.987912     0.461637  Biso 1.000000     O
    O   1.0     0.616222     0.878467     0.023917  Biso 1.000000     O
    O   1.0     0.459479     0.841380     0.990847  Biso 1.000000     O
    O   1.0     0.383985     0.979144     0.123483  Biso 1.000000     O
    O   1.0     0.540787     0.012733     0.159835  Biso 1.000000     O
    O   1.0     0.975227     0.124881     0.383758  Biso 1.000000     O
    O   1.0     0.012805     0.161680     0.539091  Biso 1.000000     O
    O   1.0     0.121483     0.383888     0.975227  Biso 1.000000     O
    O   1.0     0.158558     0.539387     0.012466  Biso 1.000000     O
    O   1.0     0.974773     0.384848     0.123805  Biso 1.000000     O
    O   1.0     0.008738     0.541368     0.160476  Biso 1.000000     O
    O   1.0     0.124597     0.979185     0.383136  Biso 1.000000     O
    O   1.0     0.161855     0.012715     0.539433  Biso 1.000000     O
    O   1.0     0.383003     0.124482     0.974155  Biso 1.000000     O
    O   1.0     0.538382     0.162083     0.011465  Biso 1.000000     O
    O   1.0     0.616874     0.026303     0.876620  Biso 1.000000     O
    O   1.0     0.461475     0.988382     0.839803  Biso 1.000000     O
    O   1.0     0.025297     0.878237     0.616756  Biso 1.000000     O
    O   1.0     0.991707     0.841226     0.460446  Biso 1.000000     O
    O   1.0     0.875639     0.618147     0.023760  Biso 1.000000     O
    O   1.0     0.838042     0.461984     0.989523  Biso 1.000000     O
   Cu   1.0     0.018355     0.584808     0.019766  Biso 1.000000    Cu
   Cu   1.0     0.021199     0.021089     0.583771  Biso 1.000000    Cu
   Cu   1.0     0.583870     0.021557     0.019276  Biso 1.000000    Cu
   Cu   1.0     0.416187     0.981911     0.980368  Biso 1.000000    Cu
   Cu   1.0     0.981818     0.981873     0.416369  Biso 1.000000    Cu
   Cu   1.0     0.978619     0.417192     0.980704  Biso 1.000000    Cu
