#======================================================================

# CRYSTAL DATA

#----------------------------------------------------------------------

data_VESTA_phase_1


_pd_phase_name                         MOF
_cell_length_a                         18.42400
_cell_length_b                         18.43300
_cell_length_c                         18.43300
_cell_angle_alpha                      60.14400
_cell_angle_beta                       60.15400
_cell_angle_gamma                      60.15600
_symmetry_space_group_name_H-M         "P 1"
_symmetry_Int_Tables_number            1

loop_
_symmetry_equiv_pos_as_xyz
   "x, y, z"

loop_
   _atom_site_label
   _atom_site_occupancy
   _atom_site_fract_x
   _atom_site_fract_y
   _atom_site_fract_z
   _atom_site_adp_type
   _atom_site_B_iso_or_equiv
   _atom_site_type_symbol
    H   1.0     0.048198     0.568045     0.048630  Biso 1.000000     H
    H   1.0     0.568132     0.047920     0.335654  Biso 1.000000     H
    H   1.0     0.048045     0.335675     0.047529  Biso 1.000000     H
    H   1.0     0.335626     0.048359     0.568170  Biso 1.000000     H
    H   1.0     0.048050     0.047533     0.335669  Biso 1.000000     H
    H   1.0     0.568125     0.335660     0.047928  Biso 1.000000     H
    H   1.0     0.048208     0.048616     0.568045  Biso 1.000000     H
    H   1.0     0.335624     0.568167     0.048358  Biso 1.000000     H
    H   1.0     0.048164     0.335661     0.568149  Biso 1.000000     H
    H   1.0     0.568156     0.048365     0.048368  Biso 1.000000     H
    H   1.0     0.048160     0.568145     0.335657  Biso 1.000000     H
    H   1.0     0.335630     0.047791     0.047776  Biso 1.000000     H
    H   1.0     0.431879     0.951619     0.951611  Biso 1.000000     H
    H   1.0     0.951876     0.431837     0.664323  Biso 1.000000     H
    H   1.0     0.664405     0.952192     0.952203  Biso 1.000000     H
    H   1.0     0.951872     0.664321     0.431831  Biso 1.000000     H
    H   1.0     0.951984     0.952450     0.664311  Biso 1.000000     H
    H   1.0     0.664411     0.431816     0.951622  Biso 1.000000     H
    H   1.0     0.951826     0.951366     0.431935  Biso 1.000000     H
    H   1.0     0.431910     0.664322     0.952053  Biso 1.000000     H
    H   1.0     0.664409     0.951626     0.431810  Biso 1.000000     H
    H   1.0     0.951838     0.431938     0.951349  Biso 1.000000     H
    H   1.0     0.431903     0.952064     0.664326  Biso 1.000000     H
    H   1.0     0.951990     0.664307     0.952450  Biso 1.000000     H
    C   1.0     0.026701     0.538995     0.026947  Biso 1.000000     C
    C   1.0     0.539075     0.026545     0.407644  Biso 1.000000     C
    C   1.0     0.026610     0.407659     0.026327  Biso 1.000000     C
    C   1.0     0.407639     0.026788     0.539084  Biso 1.000000     C
    C   1.0     0.026614     0.026327     0.407654  Biso 1.000000     C
    C   1.0     0.539070     0.407649     0.026551  Biso 1.000000     C
    C   1.0     0.026709     0.026936     0.538994  Biso 1.000000     C
    C   1.0     0.407638     0.539084     0.026790  Biso 1.000000     C
    C   1.0     0.026684     0.407649     0.539070  Biso 1.000000     C
    C   1.0     0.539052     0.026799     0.026806  Biso 1.000000     C
    C   1.0     0.026682     0.539068     0.407646  Biso 1.000000     C
    C   1.0     0.407644     0.026473     0.026469  Biso 1.000000     C
    C   1.0     0.460983     0.973185     0.973172  Biso 1.000000     C
    C   1.0     0.973356     0.460914     0.592334  Biso 1.000000     C
    C   1.0     0.592391     0.973511     0.973509  Biso 1.000000     C
    C   1.0     0.973353     0.592333     0.460910  Biso 1.000000     C
    C   1.0     0.973422     0.973654     0.592326  Biso 1.000000     C
    C   1.0     0.592397     0.460898     0.973190  Biso 1.000000     C
    C   1.0     0.973326     0.973045     0.460986  Biso 1.000000     C
    C   1.0     0.460965     0.592334     0.973429  Biso 1.000000     C
    C   1.0     0.592396     0.973198     0.460896  Biso 1.000000     C
    C   1.0     0.973335     0.460987     0.973032  Biso 1.000000     C
    C   1.0     0.460960     0.973441     0.592336  Biso 1.000000     C
    C   1.0     0.973426     0.592324     0.973652  Biso 1.000000     C
    C   1.0     0.110971     0.388957     0.110969  Biso 1.000000     C
    C   1.0     0.053659     0.446313     0.053618  Biso 1.000000     C
    C   1.0     0.389035     0.111122     0.389113  Biso 1.000000     C
    C   1.0     0.446367     0.053690     0.446404  Biso 1.000000     C
    C   1.0     0.110990     0.110955     0.388954  Biso 1.000000     C
    C   1.0     0.053663     0.053616     0.446310  Biso 1.000000     C
    C   1.0     0.389030     0.389114     0.111141  Biso 1.000000     C
    C   1.0     0.446364     0.446407     0.053683  Biso 1.000000     C
    C   1.0     0.111118     0.389098     0.389097  Biso 1.000000     C
    C   1.0     0.053707     0.446391     0.446390  Biso 1.000000     C
    C   1.0     0.388972     0.110959     0.110952  Biso 1.000000     C
    C   1.0     0.446324     0.053642     0.053626  Biso 1.000000     C
    C   1.0     0.611063     0.889021     0.889030  Biso 1.000000     C
    C   1.0     0.553711     0.946344     0.946351  Biso 1.000000     C
    C   1.0     0.888914     0.610884     0.610883  Biso 1.000000     C
    C   1.0     0.946331     0.553591     0.553590  Biso 1.000000     C
    C   1.0     0.889041     0.889030     0.611027  Biso 1.000000     C
    C   1.0     0.946374     0.946363     0.553670  Biso 1.000000     C
    C   1.0     0.611005     0.610868     0.888840  Biso 1.000000     C
    C   1.0     0.553671     0.553575     0.946296  Biso 1.000000     C
    C   1.0     0.611000     0.888853     0.610867  Biso 1.000000     C
    C   1.0     0.553667     0.946300     0.553576  Biso 1.000000     C
    C   1.0     0.889062     0.611026     0.889013  Biso 1.000000     C
    C   1.0     0.946378     0.553670     0.946359  Biso 1.000000     C
    O   1.0     0.249975     0.250012     0.250012  Biso 1.000000     O
    O   1.0     0.750060     0.749970     0.749967  Biso 1.000000     O
    O   1.0     0.133203     0.428577     0.133175  Biso 1.000000     O
    O   1.0     0.428621     0.133367     0.305332  Biso 1.000000     O
    O   1.0     0.132945     0.305162     0.132959  Biso 1.000000     O
    O   1.0     0.305231     0.133259     0.428720  Biso 1.000000     O
    O   1.0     0.132936     0.132977     0.305157  Biso 1.000000     O
    O   1.0     0.428616     0.305336     0.133358  Biso 1.000000     O
    O   1.0     0.133204     0.133177     0.428576  Biso 1.000000     O
    O   1.0     0.305227     0.428719     0.133241  Biso 1.000000     O
    O   1.0     0.133295     0.305319     0.428691  Biso 1.000000     O
    O   1.0     0.428626     0.133170     0.133160  Biso 1.000000     O
    O   1.0     0.133294     0.428692     0.305317  Biso 1.000000     O
    O   1.0     0.305139     0.132947     0.132931  Biso 1.000000     O
    O   1.0     0.571409     0.866813     0.866819  Biso 1.000000     O
    O   1.0     0.866742     0.571291     0.694663  Biso 1.000000     O
    O   1.0     0.694896     0.867036     0.867048  Biso 1.000000     O
    O   1.0     0.866741     0.694663     0.571289  Biso 1.000000     O
    O   1.0     0.867099     0.867005     0.694823  Biso 1.000000     O
    O   1.0     0.694808     0.571263     0.866740  Biso 1.000000     O
    O   1.0     0.866831     0.866805     0.571404  Biso 1.000000     O
    O   1.0     0.571419     0.694646     0.866622  Biso 1.000000     O
    O   1.0     0.694804     0.866726     0.571259  Biso 1.000000     O
    O   1.0     0.866833     0.571405     0.866803  Biso 1.000000     O
    O   1.0     0.571414     0.866618     0.694648  Biso 1.000000     O
    O   1.0     0.867091     0.694821     0.867020  Biso 1.000000     O
   Zn   1.0     0.206606     0.380468     0.206729  Biso 1.000000    Zn
   Zn   1.0     0.380481     0.206640     0.206642  Biso 1.000000    Zn
   Zn   1.0     0.206376     0.206359     0.206347  Biso 1.000000    Zn
   Zn   1.0     0.206611     0.206729     0.380472  Biso 1.000000    Zn
   Zn   1.0     0.619554     0.793342     0.793338  Biso 1.000000    Zn
   Zn   1.0     0.793428     0.619514     0.793251  Biso 1.000000    Zn
   Zn   1.0     0.793659     0.793623     0.793633  Biso 1.000000    Zn
   Zn   1.0     0.793423     0.793253     0.619508  Biso 1.000000    Zn
