#======================================================================

# CRYSTAL DATA

#----------------------------------------------------------------------

data_VESTA_phase_1


_pd_phase_name                         MOF
_cell_length_a                         18.42500
_cell_length_b                         18.43400
_cell_length_c                         18.43400
_cell_angle_alpha                      60.13700
_cell_angle_beta                       60.14700
_cell_angle_gamma                      60.15000
_symmetry_space_group_name_H-M         "P 1"
_symmetry_Int_Tables_number            1

loop_
_symmetry_equiv_pos_as_xyz
   "x, y, z"

loop_
   _atom_site_label
   _atom_site_occupancy
   _atom_site_fract_x
   _atom_site_fract_y
   _atom_site_fract_z
   _atom_site_adp_type
   _atom_site_B_iso_or_equiv
   _atom_site_type_symbol
    H   1.0     0.048300     0.568001     0.048565  Biso 1.000000     H
    H   1.0     0.568136     0.048043     0.335657  Biso 1.000000     H
    H   1.0     0.047969     0.335683     0.047570  Biso 1.000000     H
    H   1.0     0.335617     0.048348     0.568181  Biso 1.000000     H
    H   1.0     0.047959     0.047592     0.335675  Biso 1.000000     H
    H   1.0     0.568136     0.335666     0.048037  Biso 1.000000     H
    H   1.0     0.048304     0.048548     0.568006  Biso 1.000000     H
    H   1.0     0.335622     0.568173     0.048357  Biso 1.000000     H
    H   1.0     0.048170     0.335665     0.568174  Biso 1.000000     H
    H   1.0     0.568138     0.048366     0.048373  Biso 1.000000     H
    H   1.0     0.048176     0.568154     0.335656  Biso 1.000000     H
    H   1.0     0.335629     0.047789     0.047773  Biso 1.000000     H
    H   1.0     0.431886     0.951630     0.951619  Biso 1.000000     H
    H   1.0     0.951849     0.431843     0.664335  Biso 1.000000     H
    H   1.0     0.664394     0.952208     0.952218  Biso 1.000000     H
    H   1.0     0.951854     0.664332     0.431818  Biso 1.000000     H
    H   1.0     0.952066     0.952404     0.664317  Biso 1.000000     H
    H   1.0     0.664402     0.431824     0.951636  Biso 1.000000     H
    H   1.0     0.951721     0.951448     0.431986  Biso 1.000000     H
    H   1.0     0.431888     0.664331     0.951956  Biso 1.000000     H
    H   1.0     0.664407     0.951650     0.431811  Biso 1.000000     H
    H   1.0     0.951724     0.431995     0.951427  Biso 1.000000     H
    H   1.0     0.431888     0.951955     0.664334  Biso 1.000000     H
    H   1.0     0.952055     0.664314     0.952422  Biso 1.000000     H
    C   1.0     0.026762     0.538969     0.026913  Biso 1.000000     C
    C   1.0     0.539073     0.026615     0.407650  Biso 1.000000     C
    C   1.0     0.026564     0.407667     0.026345  Biso 1.000000     C
    C   1.0     0.407632     0.026788     0.539088  Biso 1.000000     C
    C   1.0     0.026555     0.026358     0.407662  Biso 1.000000     C
    C   1.0     0.539076     0.407656     0.026605  Biso 1.000000     C
    C   1.0     0.026761     0.026904     0.538970  Biso 1.000000     C
    C   1.0     0.407637     0.539085     0.026786  Biso 1.000000     C
    C   1.0     0.026681     0.407655     0.539083  Biso 1.000000     C
    C   1.0     0.539041     0.026803     0.026810  Biso 1.000000     C
    C   1.0     0.026684     0.539073     0.407649  Biso 1.000000     C
    C   1.0     0.407645     0.026469     0.026464  Biso 1.000000     C
    C   1.0     0.460982     0.973194     0.973182  Biso 1.000000     C
    C   1.0     0.973341     0.460924     0.592343  Biso 1.000000     C
    C   1.0     0.592379     0.973528     0.973528  Biso 1.000000     C
    C   1.0     0.973343     0.592342     0.460909  Biso 1.000000     C
    C   1.0     0.973469     0.973638     0.592330  Biso 1.000000     C
    C   1.0     0.592387     0.460912     0.973206  Biso 1.000000     C
    C   1.0     0.973264     0.973092     0.461022  Biso 1.000000     C
    C   1.0     0.460948     0.592341     0.973387  Biso 1.000000     C
    C   1.0     0.592392     0.973210     0.460904  Biso 1.000000     C
    C   1.0     0.973262     0.461028     0.973079  Biso 1.000000     C
    C   1.0     0.460951     0.973382     0.592342  Biso 1.000000     C
    C   1.0     0.973460     0.592329     0.973646  Biso 1.000000     C
    C   1.0     0.110989     0.388906     0.110949  Biso 1.000000     C
    C   1.0     0.053667     0.446288     0.053610  Biso 1.000000     C
    C   1.0     0.389034     0.111200     0.389103  Biso 1.000000     C
    C   1.0     0.446362     0.053740     0.446404  Biso 1.000000     C
    C   1.0     0.110985     0.110957     0.388905  Biso 1.000000     C
    C   1.0     0.053661     0.053614     0.446287  Biso 1.000000     C
    C   1.0     0.389035     0.389101     0.111211  Biso 1.000000     C
    C   1.0     0.446365     0.446405     0.053739  Biso 1.000000     C
    C   1.0     0.111133     0.389096     0.389106  Biso 1.000000     C
    C   1.0     0.053713     0.446391     0.446397  Biso 1.000000     C
    C   1.0     0.388949     0.110954     0.110946  Biso 1.000000     C
    C   1.0     0.446313     0.053633     0.053630  Biso 1.000000     C
    C   1.0     0.611074     0.889042     0.889046  Biso 1.000000     C
    C   1.0     0.553711     0.946364     0.946361  Biso 1.000000     C
    C   1.0     0.888891     0.610901     0.610886  Biso 1.000000     C
    C   1.0     0.946312     0.553606     0.553595  Biso 1.000000     C
    C   1.0     0.889039     0.889039     0.611087  Biso 1.000000     C
    C   1.0     0.946364     0.946382     0.553705  Biso 1.000000     C
    C   1.0     0.610988     0.610896     0.888781  Biso 1.000000     C
    C   1.0     0.553659     0.553592     0.946254  Biso 1.000000     C
    C   1.0     0.610990     0.888798     0.610888  Biso 1.000000     C
    C   1.0     0.553662     0.946258     0.553587  Biso 1.000000     C
    C   1.0     0.889034     0.611090     0.889043  Biso 1.000000     C
    C   1.0     0.946357     0.553709     0.946382  Biso 1.000000     C
    O   1.0     0.249969     0.249996     0.249998  Biso 1.000000     O
    O   1.0     0.750055     0.750001     0.749993  Biso 1.000000     O
    O   1.0     0.133257     0.428503     0.133140  Biso 1.000000     O
    O   1.0     0.428633     0.133433     0.305322  Biso 1.000000     O
    O   1.0     0.132904     0.305117     0.132970  Biso 1.000000     O
    O   1.0     0.305226     0.133291     0.428707  Biso 1.000000     O
    O   1.0     0.132891     0.132993     0.305114  Biso 1.000000     O
    O   1.0     0.428633     0.305323     0.133418  Biso 1.000000     O
    O   1.0     0.133243     0.133152     0.428505  Biso 1.000000     O
    O   1.0     0.305228     0.428700     0.133301  Biso 1.000000     O
    O   1.0     0.133274     0.305313     0.428703  Biso 1.000000     O
    O   1.0     0.428583     0.133167     0.133169  Biso 1.000000     O
    O   1.0     0.133262     0.428690     0.305319  Biso 1.000000     O
    O   1.0     0.305118     0.132933     0.132925  Biso 1.000000     O
    O   1.0     0.571441     0.866830     0.866823  Biso 1.000000     O
    O   1.0     0.866762     0.571307     0.694673  Biso 1.000000     O
    O   1.0     0.694905     0.867064     0.867067  Biso 1.000000     O
    O   1.0     0.866749     0.694684     0.571289  Biso 1.000000     O
    O   1.0     0.867132     0.867004     0.694878  Biso 1.000000     O
    O   1.0     0.694796     0.571296     0.866690  Biso 1.000000     O
    O   1.0     0.866781     0.866844     0.571487  Biso 1.000000     O
    O   1.0     0.571390     0.694674     0.866573  Biso 1.000000     O
    O   1.0     0.694798     0.866706     0.571284  Biso 1.000000     O
    O   1.0     0.866767     0.571494     0.866852  Biso 1.000000     O
    O   1.0     0.571391     0.866564     0.694670  Biso 1.000000     O
    O   1.0     0.867119     0.694879     0.867022  Biso 1.000000     O
   Zn   1.0     0.206590     0.380463     0.206733  Biso 1.000000    Zn
   Zn   1.0     0.380477     0.206630     0.206633  Biso 1.000000    Zn
   Zn   1.0     0.206381     0.206354     0.206340  Biso 1.000000    Zn
   Zn   1.0     0.206593     0.206731     0.380472  Biso 1.000000    Zn
   Zn   1.0     0.619546     0.793367     0.793359  Biso 1.000000    Zn
   Zn   1.0     0.793433     0.619534     0.793259  Biso 1.000000    Zn
   Zn   1.0     0.793642     0.793643     0.793652  Biso 1.000000    Zn
   Zn   1.0     0.793431     0.793266     0.619520  Biso 1.000000    Zn
