#======================================================================

# CRYSTAL DATA

#----------------------------------------------------------------------

data_VESTA_phase_1


_pd_phase_name                         MOF
_cell_length_a                         18.41600
_cell_length_b                         18.42300
_cell_length_c                         18.42200
_cell_angle_alpha                      60.23800
_cell_angle_beta                       60.20700
_cell_angle_gamma                      60.20800
_symmetry_space_group_name_H-M         "P 1"
_symmetry_Int_Tables_number            1

loop_
_symmetry_equiv_pos_as_xyz
   "x, y, z"

loop_
   _atom_site_label
   _atom_site_occupancy
   _atom_site_fract_x
   _atom_site_fract_y
   _atom_site_fract_z
   _atom_site_adp_type
   _atom_site_B_iso_or_equiv
   _atom_site_type_symbol
    H   1.0     0.048509     0.568015     0.048523  Biso 1.000000     H
    H   1.0     0.568197     0.048080     0.335747  Biso 1.000000     H
    H   1.0     0.047648     0.335747     0.047665  Biso 1.000000     H
    H   1.0     0.335630     0.048184     0.568070  Biso 1.000000     H
    H   1.0     0.047651     0.047668     0.335756  Biso 1.000000     H
    H   1.0     0.568191     0.335737     0.048075  Biso 1.000000     H
    H   1.0     0.048521     0.048510     0.568041  Biso 1.000000     H
    H   1.0     0.335623     0.568040     0.048198  Biso 1.000000     H
    H   1.0     0.048158     0.335733     0.568042  Biso 1.000000     H
    H   1.0     0.568118     0.048466     0.048466  Biso 1.000000     H
    H   1.0     0.048163     0.568006     0.335749  Biso 1.000000     H
    H   1.0     0.335638     0.047736     0.047738  Biso 1.000000     H
    H   1.0     0.431891     0.951507     0.951558  Biso 1.000000     H
    H   1.0     0.951850     0.431966     0.664277  Biso 1.000000     H
    H   1.0     0.664371     0.952236     0.952287  Biso 1.000000     H
    H   1.0     0.951855     0.664239     0.431984  Biso 1.000000     H
    H   1.0     0.952363     0.952301     0.664268  Biso 1.000000     H
    H   1.0     0.664389     0.431931     0.951825  Biso 1.000000     H
    H   1.0     0.951493     0.951459     0.431983  Biso 1.000000     H
    H   1.0     0.431821     0.664234     0.951949  Biso 1.000000     H
    H   1.0     0.664381     0.951793     0.431954  Biso 1.000000     H
    H   1.0     0.951502     0.431956     0.951500  Biso 1.000000     H
    H   1.0     0.431814     0.951896     0.664278  Biso 1.000000     H
    H   1.0     0.952363     0.664224     0.952359  Biso 1.000000     H
    C   1.0     0.026881     0.538973     0.026887  Biso 1.000000     C
    C   1.0     0.539107     0.026627     0.407706  Biso 1.000000     C
    C   1.0     0.026391     0.407700     0.026401  Biso 1.000000     C
    C   1.0     0.407638     0.026682     0.539039  Biso 1.000000     C
    C   1.0     0.026394     0.026402     0.407714  Biso 1.000000     C
    C   1.0     0.539101     0.407692     0.026629  Biso 1.000000     C
    C   1.0     0.026891     0.026877     0.538997  Biso 1.000000     C
    C   1.0     0.407631     0.539013     0.026696  Biso 1.000000     C
    C   1.0     0.026670     0.407687     0.539028  Biso 1.000000     C
    C   1.0     0.539030     0.026856     0.026860  Biso 1.000000     C
    C   1.0     0.026673     0.538996     0.407708  Biso 1.000000     C
    C   1.0     0.407642     0.026441     0.026446  Biso 1.000000     C
    C   1.0     0.460979     0.973114     0.973167  Biso 1.000000     C
    C   1.0     0.973337     0.460976     0.592318  Biso 1.000000     C
    C   1.0     0.592367     0.973529     0.973582  Biso 1.000000     C
    C   1.0     0.973339     0.592285     0.460998  Biso 1.000000     C
    C   1.0     0.973618     0.973569     0.592310  Biso 1.000000     C
    C   1.0     0.592381     0.460958     0.973328  Biso 1.000000     C
    C   1.0     0.973121     0.973095     0.461027  Biso 1.000000     C
    C   1.0     0.460911     0.592279     0.973395  Biso 1.000000     C
    C   1.0     0.592373     0.973283     0.460986  Biso 1.000000     C
    C   1.0     0.973130     0.460998     0.973138  Biso 1.000000     C
    C   1.0     0.460904     0.973338     0.592318  Biso 1.000000     C
    C   1.0     0.973620     0.592271     0.973623  Biso 1.000000     C
    C   1.0     0.110914     0.388984     0.110994  Biso 1.000000     C
    C   1.0     0.053620     0.446325     0.053644  Biso 1.000000     C
    C   1.0     0.389110     0.111121     0.389101  Biso 1.000000     C
    C   1.0     0.446406     0.053666     0.446400  Biso 1.000000     C
    C   1.0     0.110916     0.110990     0.389000  Biso 1.000000     C
    C   1.0     0.053624     0.053641     0.446343  Biso 1.000000     C
    C   1.0     0.389106     0.389083     0.111138  Biso 1.000000     C
    C   1.0     0.446401     0.446381     0.053673  Biso 1.000000     C
    C   1.0     0.111146     0.389052     0.389075  Biso 1.000000     C
    C   1.0     0.053684     0.446369     0.446395  Biso 1.000000     C
    C   1.0     0.388946     0.111003     0.111010  Biso 1.000000     C
    C   1.0     0.446315     0.053652     0.053659  Biso 1.000000     C
    C   1.0     0.611064     0.888966     0.889018  Biso 1.000000     C
    C   1.0     0.553694     0.946320     0.946366  Biso 1.000000     C
    C   1.0     0.888861     0.610920     0.610951  Biso 1.000000     C
    C   1.0     0.946327     0.553603     0.553631  Biso 1.000000     C
    C   1.0     0.889094     0.888984     0.611024  Biso 1.000000     C
    C   1.0     0.946389     0.946329     0.553681  Biso 1.000000     C
    C   1.0     0.610906     0.610888     0.888888  Biso 1.000000     C
    C   1.0     0.553611     0.553590     0.946351  Biso 1.000000     C
    C   1.0     0.610901     0.888842     0.610923  Biso 1.000000     C
    C   1.0     0.553605     0.946306     0.553624  Biso 1.000000     C
    C   1.0     0.889097     0.610987     0.889030  Biso 1.000000     C
    C   1.0     0.946392     0.553646     0.946379  Biso 1.000000     C
    O   1.0     0.250000     0.249996     0.250010  Biso 1.000000     O
    O   1.0     0.750010     0.749976     0.750015  Biso 1.000000     O
    O   1.0     0.133245     0.428605     0.133187  Biso 1.000000     O
    O   1.0     0.428707     0.133387     0.305356  Biso 1.000000     O
    O   1.0     0.132778     0.305211     0.133007  Biso 1.000000     O
    O   1.0     0.305314     0.133232     0.428666  Biso 1.000000     O
    O   1.0     0.132759     0.133027     0.305222  Biso 1.000000     O
    O   1.0     0.428705     0.305344     0.133375  Biso 1.000000     O
    O   1.0     0.133260     0.133165     0.428627  Biso 1.000000     O
    O   1.0     0.305309     0.428642     0.133244  Biso 1.000000     O
    O   1.0     0.133296     0.305323     0.428618  Biso 1.000000     O
    O   1.0     0.428610     0.133246     0.133249  Biso 1.000000     O
    O   1.0     0.133300     0.428596     0.305341  Biso 1.000000     O
    O   1.0     0.305118     0.132963     0.132980  Biso 1.000000     O
    O   1.0     0.571399     0.866728     0.866775  Biso 1.000000     O
    O   1.0     0.866709     0.571376     0.694684  Biso 1.000000     O
    O   1.0     0.694892     0.867006     0.867049  Biso 1.000000     O
    O   1.0     0.866710     0.694649     0.571408  Biso 1.000000     O
    O   1.0     0.867248     0.866949     0.694803  Biso 1.000000     O
    O   1.0     0.694702     0.571329     0.866782  Biso 1.000000     O
    O   1.0     0.866757     0.866801     0.571398  Biso 1.000000     O
    O   1.0     0.571306     0.694627     0.866649  Biso 1.000000     O
    O   1.0     0.694697     0.866743     0.571358  Biso 1.000000     O
    O   1.0     0.866767     0.571366     0.866836  Biso 1.000000     O
    O   1.0     0.571304     0.866580     0.694668  Biso 1.000000     O
    O   1.0     0.867233     0.694760     0.867017  Biso 1.000000     O
   Zn   1.0     0.206732     0.380375     0.206703  Biso 1.000000    Zn
   Zn   1.0     0.380488     0.206758     0.206765  Biso 1.000000    Zn
   Zn   1.0     0.206150     0.206379     0.206381  Biso 1.000000    Zn
   Zn   1.0     0.206735     0.206688     0.380398  Biso 1.000000    Zn
   Zn   1.0     0.619522     0.793214     0.793260  Biso 1.000000    Zn
   Zn   1.0     0.793279     0.619597     0.793322  Biso 1.000000    Zn
   Zn   1.0     0.793861     0.793594     0.793644  Biso 1.000000    Zn
   Zn   1.0     0.793275     0.793285     0.619627  Biso 1.000000    Zn
