#======================================================================

# CRYSTAL DATA

#----------------------------------------------------------------------

data_VESTA_phase_1


_pd_phase_name                         MOF
_cell_length_a                         20.21900
_cell_length_b                         13.05700
_cell_length_c                         24.35900
_cell_angle_alpha                      85.54200
_cell_angle_beta                       85.31400
_cell_angle_gamma                      80.74900
_symmetry_space_group_name_H-M         "P 1"
_symmetry_Int_Tables_number            1

loop_
_symmetry_equiv_pos_as_xyz
   "x, y, z"

loop_
   _atom_site_label
   _atom_site_occupancy
   _atom_site_fract_x
   _atom_site_fract_y
   _atom_site_fract_z
   _atom_site_adp_type
   _atom_site_B_iso_or_equiv
   _atom_site_type_symbol
    H   1.0     0.061829     0.040533     0.806944  Biso 1.000000     H
    H   1.0     0.577888     0.040534     0.806943  Biso 1.000000     H
    H   1.0     0.093635     0.043789     0.901983  Biso 1.000000     H
    H   1.0     0.609692     0.043791     0.901983  Biso 1.000000     H
    H   1.0     0.290877     0.834030     0.866295  Biso 1.000000     H
    H   1.0     0.806932     0.834024     0.866299  Biso 1.000000     H
    H   1.0     0.260163     0.834760     0.769850  Biso 1.000000     H
    H   1.0     0.776220     0.834756     0.769853  Biso 1.000000     H
    H   1.0     0.226031     0.733652     0.582045  Biso 1.000000     H
    H   1.0     0.742095     0.733652     0.582046  Biso 1.000000     H
    H   1.0     0.210035     0.905624     0.623304  Biso 1.000000     H
    H   1.0     0.726098     0.905623     0.623307  Biso 1.000000     H
    H   1.0     0.118829     0.761559     0.769821  Biso 1.000000     H
    H   1.0     0.634888     0.761557     0.769822  Biso 1.000000     H
    H   1.0     0.134227     0.597926     0.721094  Biso 1.000000     H
    H   1.0     0.650288     0.597925     0.721094  Biso 1.000000     H
    H   1.0     0.111153     0.286814     0.690843  Biso 1.000000     H
    H   1.0     0.627216     0.286812     0.690844  Biso 1.000000     H
    H   1.0     0.151289     0.126019     0.747068  Biso 1.000000     H
    H   1.0     0.667351     0.126017     0.747069  Biso 1.000000     H
    H   1.0     0.062028    -0.042600     0.633329  Biso 1.000000     H
    H   1.0     0.578089    -0.042601     0.633330  Biso 1.000000     H
    H   1.0     0.028512     0.125912     0.581223  Biso 1.000000     H
    H   1.0     0.544575     0.125912     0.581224  Biso 1.000000     H
    H   1.0     0.430675     0.068712     0.877442  Biso 1.000000     H
    H   1.0     0.946743     0.068713     0.877442  Biso 1.000000     H
    H   1.0     0.376885     0.013595     0.798767  Biso 1.000000     H
    H   1.0     0.892950     0.013598     0.798768  Biso 1.000000     H
    H   1.0     0.444392     0.265002     0.694510  Biso 1.000000     H
    H   1.0     0.960456     0.265003     0.694509  Biso 1.000000     H
    H   1.0     0.496649     0.321339     0.772153  Biso 1.000000     H
    H   1.0     0.000000     0.321341     0.772152  Biso 1.000000     H
    H   1.0     0.190896     0.332435     0.000000  Biso 1.000000     H
    H   1.0     0.706955     0.332437     0.000000  Biso 1.000000     H
    H   1.0     0.269311     0.442752     0.071520  Biso 1.000000     H
    H   1.0     0.785372     0.442755     0.071519  Biso 1.000000     H
    H   1.0     0.073520     0.461945     0.158519  Biso 1.000000     H
    H   1.0     0.589582     0.461943     0.158521  Biso 1.000000     H
    H   1.0     0.025447     0.423128     0.073717  Biso 1.000000     H
    H   1.0     0.541508     0.423123     0.073719  Biso 1.000000     H
    H   1.0     0.196040     0.374302     0.706076  Biso 1.000000     H
    H   1.0     0.712103     0.374302     0.706076  Biso 1.000000     H
    H   1.0     0.267935     0.218198     0.748174  Biso 1.000000     H
    H   1.0     0.783999     0.218201     0.748174  Biso 1.000000     H
    H   1.0     0.379828     0.189718     0.589418  Biso 1.000000     H
    H   1.0     0.895890     0.189717     0.589418  Biso 1.000000     H
    H   1.0     0.304274     0.344470     0.554420  Biso 1.000000     H
    H   1.0     0.820338     0.344470     0.554420  Biso 1.000000     H
    H   1.0     0.335962     0.862216     0.600897  Biso 1.000000     H
    H   1.0     0.852024     0.862216     0.600898  Biso 1.000000     H
    H   1.0     0.296670     0.031378     0.629091  Biso 1.000000     H
    H   1.0     0.812733     0.031379     0.629092  Biso 1.000000     H
    H   1.0     0.495131     0.965475     0.719710  Biso 1.000000     H
    H   1.0     0.000000     0.965476     0.719709  Biso 1.000000     H
    H   1.0     0.506311     0.786539     0.687724  Biso 1.000000     H
    H   1.0     0.000000     0.786541     0.687723  Biso 1.000000     H
    H   1.0     0.124431     0.213094     0.283143  Biso 1.000000     H
    H   1.0     0.640496     0.213093     0.283144  Biso 1.000000     H
    H   1.0     0.164797     0.282126     0.190618  Biso 1.000000     H
    H   1.0     0.680861     0.282126     0.190618  Biso 1.000000     H
    H   1.0     0.190117     0.559271     0.267032  Biso 1.000000     H
    H   1.0     0.706179     0.559272     0.267032  Biso 1.000000     H
    H   1.0     0.150605     0.477027     0.356810  Biso 1.000000     H
    H   1.0     0.666667     0.477028     0.356811  Biso 1.000000     H
    H   1.0     0.264015     0.794135     0.118795  Biso 1.000000     H
    H   1.0     0.780073     0.794138     0.118793  Biso 1.000000     H
    H   1.0     0.187058     0.663438     0.115562  Biso 1.000000     H
    H   1.0     0.703117     0.663439     0.115562  Biso 1.000000     H
    H   1.0     0.319680     0.454570     0.219022  Biso 1.000000     H
    H   1.0     0.835741     0.454575     0.219021  Biso 1.000000     H
    H   1.0     0.391508     0.591368     0.217352  Biso 1.000000     H
    H   1.0     0.907568     0.591375     0.217350  Biso 1.000000     H
    H   1.0     0.443087     0.901994     0.213809  Biso 1.000000     H
    H   1.0     0.959148     0.901995     0.213808  Biso 1.000000     H
    H   1.0     0.411403     0.898497     0.118758  Biso 1.000000     H
    H   1.0     0.927461     0.898498     0.118758  Biso 1.000000     H
    H   1.0     0.214143     0.108384     0.154176  Biso 1.000000     H
    H   1.0     0.730203     0.108385     0.154179  Biso 1.000000     H
    H   1.0     0.244715     0.107864     0.250651  Biso 1.000000     H
    H   1.0     0.760778     0.107867     0.250653  Biso 1.000000     H
    H   1.0     0.278537     0.209354     0.438447  Biso 1.000000     H
    H   1.0     0.794603     0.209355     0.438448  Biso 1.000000     H
    H   1.0     0.294426     0.037365     0.397239  Biso 1.000000     H
    H   1.0     0.810491     0.037366     0.397239  Biso 1.000000     H
    H   1.0     0.386309     0.180873     0.250875  Biso 1.000000     H
    H   1.0     0.902371     0.180876     0.250875  Biso 1.000000     H
    H   1.0     0.371084     0.344520     0.299573  Biso 1.000000     H
    H   1.0     0.887145     0.344524     0.299572  Biso 1.000000     H
    H   1.0     0.394147     0.655725     0.329660  Biso 1.000000     H
    H   1.0     0.910208     0.655728     0.329661  Biso 1.000000     H
    H   1.0     0.353755     0.816494     0.273528  Biso 1.000000     H
    H   1.0     0.869816     0.816497     0.273529  Biso 1.000000     H
    H   1.0     0.442564     0.985383     0.387432  Biso 1.000000     H
    H   1.0     0.958631     0.985384     0.387430  Biso 1.000000     H
    H   1.0     0.476337     0.816867     0.439448  Biso 1.000000     H
    H   1.0     0.992402     0.816868     0.439447  Biso 1.000000     H
    H   1.0     0.074289     0.873505     0.143317  Biso 1.000000     H
    H   1.0     0.590350     0.873506     0.143317  Biso 1.000000     H
    H   1.0     0.127969     0.928803     0.222005  Biso 1.000000     H
    H   1.0     0.644029     0.928806     0.222006  Biso 1.000000     H
    H   1.0     0.060771     0.677127     0.326234  Biso 1.000000     H
    H   1.0     0.576834     0.677124     0.326234  Biso 1.000000     H
    H   1.0     0.008612     0.620621     0.248580  Biso 1.000000     H
    H   1.0     0.524676     0.620619     0.248579  Biso 1.000000     H
    H   1.0     0.314476     0.608678     0.013950  Biso 1.000000     H
    H   1.0     0.830537     0.608685     0.013950  Biso 1.000000     H
    H   1.0     0.235965     0.498512     0.949439  Biso 1.000000     H
    H   1.0     0.752026     0.498518     0.949439  Biso 1.000000     H
    H   1.0     0.431640     0.479752     0.862275  Biso 1.000000     H
    H   1.0     0.947703     0.479751     0.862277  Biso 1.000000     H
    H   1.0     0.479807     0.518436     0.947063  Biso 1.000000     H
    H   1.0     0.995870     0.518435     0.947065  Biso 1.000000     H
    H   1.0     0.309267     0.568477     0.314460  Biso 1.000000     H
    H   1.0     0.825329     0.568478     0.314460  Biso 1.000000     H
    H   1.0     0.237136     0.724444     0.272452  Biso 1.000000     H
    H   1.0     0.753198     0.724445     0.272452  Biso 1.000000     H
    H   1.0     0.125229     0.752176     0.431239  Biso 1.000000     H
    H   1.0     0.641290     0.752175     0.431238  Biso 1.000000     H
    H   1.0     0.201049     0.597624     0.466143  Biso 1.000000     H
    H   1.0     0.717112     0.597625     0.466143  Biso 1.000000     H
    H   1.0     0.168987     0.079755     0.420091  Biso 1.000000     H
    H   1.0     0.685051     0.079754     0.420090  Biso 1.000000     H
    H   1.0     0.208242     0.910669     0.391821  Biso 1.000000     H
    H   1.0     0.724305     0.910669     0.391819  Biso 1.000000     H
    H   1.0     0.009905    -0.023102     0.301063  Biso 1.000000     H
    H   1.0     0.525966    -0.023103     0.301064  Biso 1.000000     H
    H   1.0    -0.001221     0.155774     0.333114  Biso 1.000000     H
    H   1.0     0.514841     0.155774     0.333115  Biso 1.000000     H
    H   1.0     0.380674     0.728942     0.737929  Biso 1.000000     H
    H   1.0     0.896740     0.728943     0.737930  Biso 1.000000     H
    H   1.0     0.340250     0.659711     0.830399  Biso 1.000000     H
    H   1.0     0.856315     0.659712     0.830400  Biso 1.000000     H
    H   1.0     0.315145     0.382668     0.753794  Biso 1.000000     H
    H   1.0     0.831206     0.382672     0.753794  Biso 1.000000     H
    H   1.0     0.354609     0.465158     0.664070  Biso 1.000000     H
    H   1.0     0.870671     0.465161     0.664070  Biso 1.000000     H
    H   1.0     0.241191     0.147491     0.901901  Biso 1.000000     H
    H   1.0     0.757250     0.147496     0.901902  Biso 1.000000     H
    H   1.0     0.318117     0.278202     0.905221  Biso 1.000000     H
    H   1.0     0.834178     0.278205     0.905221  Biso 1.000000     H
    H   1.0     0.185509     0.487166     0.801786  Biso 1.000000     H
    H   1.0     0.701572     0.487172     0.801786  Biso 1.000000     H
    H   1.0     0.113729     0.350341     0.803357  Biso 1.000000     H
    H   1.0     0.629791     0.350348     0.803356  Biso 1.000000     H
    C   1.0     0.222375     0.944547     0.946635  Biso 1.000000     C
    C   1.0     0.738429     0.944547     0.946638  Biso 1.000000     C
    C   1.0     0.238507     0.942835     0.994403  Biso 1.000000     C
    C   1.0     0.754562     0.942833     0.994405  Biso 1.000000     C
    C   1.0     0.168690     0.944233     0.781677  Biso 1.000000     C
    C   1.0     0.684749     0.944232     0.781678  Biso 1.000000     C
    C   1.0     0.107775    -0.007731     0.819722  Biso 1.000000     C
    C   1.0     0.623833    -0.007731     0.819723  Biso 1.000000     C
    C   1.0     0.125540    -0.006285     0.873551  Biso 1.000000     C
    C   1.0     0.641597    -0.006286     0.873552  Biso 1.000000     C
    C   1.0     0.204255     0.944731     0.891726  Biso 1.000000     C
    C   1.0     0.720310     0.944729     0.891729  Biso 1.000000     C
    C   1.0     0.245032     0.882229     0.853129  Biso 1.000000     C
    C   1.0     0.761089     0.882226     0.853132  Biso 1.000000     C
    C   1.0     0.227809     0.882625     0.799061  Biso 1.000000     C
    C   1.0     0.743866     0.882621     0.799064  Biso 1.000000     C
    C   1.0     0.201436     0.743848     0.623181  Biso 1.000000     C
    C   1.0     0.717498     0.743848     0.623182  Biso 1.000000     C
    C   1.0     0.193089     0.839054     0.646651  Biso 1.000000     C
    C   1.0     0.709151     0.839053     0.646653  Biso 1.000000     C
    C   1.0     0.162491     0.848341     0.700178  Biso 1.000000     C
    C   1.0     0.678553     0.848340     0.700179  Biso 1.000000     C
    C   1.0     0.142639     0.758990     0.728099  Biso 1.000000     C
    C   1.0     0.658699     0.758989     0.728100  Biso 1.000000     C
    C   1.0     0.152061     0.667036     0.701266  Biso 1.000000     C
    C   1.0     0.668121     0.667035     0.701266  Biso 1.000000     C
    C   1.0     0.102273     0.211571     0.679317  Biso 1.000000     C
    C   1.0     0.618336     0.211570     0.679318  Biso 1.000000     C
    C   1.0     0.124497     0.121110     0.710638  Biso 1.000000     C
    C   1.0     0.640559     0.121109     0.710639  Biso 1.000000     C
    C   1.0     0.111281     0.025440     0.694955  Biso 1.000000     C
    C   1.0     0.627342     0.025439     0.694956  Biso 1.000000     C
    C   1.0     0.075291     0.027904     0.647553  Biso 1.000000     C
    C   1.0     0.591353     0.027903     0.647553  Biso 1.000000     C
    C   1.0     0.056150     0.122063     0.618141  Biso 1.000000     C
    C   1.0     0.572212     0.122062     0.618141  Biso 1.000000     C
    C   1.0     0.497644     0.230026     0.875408  Biso 1.000000     C
    C   1.0     0.000000     0.230027     0.875407  Biso 1.000000     C
    C   1.0     0.008063     0.257105     0.914355  Biso 1.000000     C
    C   1.0     0.524125     0.257103     0.914357  Biso 1.000000     C
    C   1.0     0.036619     0.286190     0.957508  Biso 1.000000     C
    C   1.0     0.552680     0.286188     0.957509  Biso 1.000000     C
    C   1.0     0.062152     0.311559     0.997423  Biso 1.000000     C
    C   1.0     0.578212     0.311558     0.997426  Biso 1.000000     C
    C   1.0     0.467655     0.198459     0.830539  Biso 1.000000     C
    C   1.0     0.983722     0.198460     0.830538  Biso 1.000000     C
    C   1.0     0.433831     0.110906     0.837150  Biso 1.000000     C
    C   1.0     0.949896     0.110909     0.837150  Biso 1.000000     C
    C   1.0     0.404025     0.079768     0.793175  Biso 1.000000     C
    C   1.0     0.920091     0.079769     0.793175  Biso 1.000000     C
    C   1.0     0.407770     0.134914     0.741528  Biso 1.000000     C
    C   1.0     0.923835     0.134915     0.741527  Biso 1.000000     C
    C   1.0     0.441300     0.221542     0.734428  Biso 1.000000     C
    C   1.0     0.957363     0.221545     0.734428  Biso 1.000000     C
    C   1.0     0.470896     0.253538     0.778322  Biso 1.000000     C
    C   1.0     0.986961     0.253539     0.778321  Biso 1.000000     C
    C   1.0     0.119968     0.409233     0.024125  Biso 1.000000     C
    C   1.0     0.636029     0.409232     0.024127  Biso 1.000000     C
    C   1.0     0.188894     0.417285     0.023986  Biso 1.000000     C
    C   1.0     0.704955     0.417286     0.023987  Biso 1.000000     C
    C   1.0     0.215873     0.438691     0.071685  Biso 1.000000     C
    C   1.0     0.731934     0.438693     0.071685  Biso 1.000000     C
    C   1.0     0.174812     0.453253     0.120686  Biso 1.000000     C
    C   1.0     0.690873     0.453252     0.120686  Biso 1.000000     C
    C   1.0     0.105926     0.448175     0.120977  Biso 1.000000     C
    C   1.0     0.621988     0.448172     0.120979  Biso 1.000000     C
    C   1.0     0.078980     0.426080     0.073491  Biso 1.000000     C
    C   1.0     0.595041     0.426078     0.073493  Biso 1.000000     C
    C   1.0     0.237373     0.330690     0.682007  Biso 1.000000     C
    C   1.0     0.753437     0.330692     0.682007  Biso 1.000000     C
    C   1.0     0.276917     0.243735     0.704933  Biso 1.000000     C
    C   1.0     0.792980     0.243734     0.704933  Biso 1.000000     C
    C   1.0     0.329337     0.191116     0.671756  Biso 1.000000     C
    C   1.0     0.845400     0.191117     0.671757  Biso 1.000000     C
    C   1.0     0.338654     0.225884     0.616489  Biso 1.000000     C
    C   1.0     0.854718     0.225885     0.616489  Biso 1.000000     C
    C   1.0     0.296928     0.314180     0.596840  Biso 1.000000     C
    C   1.0     0.812991     0.314180     0.596840  Biso 1.000000     C
    C   1.0     0.369560     0.888549     0.627722  Biso 1.000000     C
    C   1.0     0.885624     0.888551     0.627721  Biso 1.000000     C
    C   1.0     0.339365    -0.023066     0.643358  Biso 1.000000     C
    C   1.0     0.855429    -0.023064     0.643357  Biso 1.000000     C
    C   1.0     0.383972     0.008004     0.678155  Biso 1.000000     C
    C   1.0     0.900034     0.008004     0.678156  Biso 1.000000     C
    C   1.0     0.458048     0.945845     0.694026  Biso 1.000000     C
    C   1.0     0.974114     0.945848     0.694024  Biso 1.000000     C
    C   1.0     0.464611     0.846277     0.676272  Biso 1.000000     C
    C   1.0     0.980676     0.846279     0.676271  Biso 1.000000     C
    C   1.0     0.140594     0.289172     0.278020  Biso 1.000000     C
    C   1.0     0.656658     0.289172     0.278020  Biso 1.000000     C
    C   1.0     0.163016     0.327741     0.226381  Biso 1.000000     C
    C   1.0     0.679080     0.327740     0.226381  Biso 1.000000     C
    C   1.0     0.181983     0.427250     0.221002  Biso 1.000000     C
    C   1.0     0.698047     0.427250     0.221003  Biso 1.000000     C
    C   1.0     0.177936     0.481138     0.268988  Biso 1.000000     C
    C   1.0     0.693999     0.481139     0.268989  Biso 1.000000     C
    C   1.0     0.155517     0.436325     0.318999  Biso 1.000000     C
    C   1.0     0.671580     0.436326     0.318999  Biso 1.000000     C
    C   1.0     0.275220     0.717559     0.140522  Biso 1.000000     C
    C   1.0     0.791278     0.717563     0.140521  Biso 1.000000     C
    C   1.0     0.232113     0.644798     0.138344  Biso 1.000000     C
    C   1.0     0.748172     0.644800     0.138343  Biso 1.000000     C
    C   1.0     0.246770     0.548360     0.167824  Biso 1.000000     C
    C   1.0     0.762832     0.548361     0.167822  Biso 1.000000     C
    C   1.0     0.305475     0.529005     0.196277  Biso 1.000000     C
    C   1.0     0.821536     0.529010     0.196277  Biso 1.000000     C
    C   1.0     0.345455     0.606742     0.195494  Biso 1.000000     C
    C   1.0     0.861514     0.606748     0.195493  Biso 1.000000     C
    C   1.0     0.282709    -0.002339     0.073962  Biso 1.000000     C
    C   1.0     0.798766    -0.002339     0.073964  Biso 1.000000     C
    C   1.0     0.266591    -0.000670     0.026193  Biso 1.000000     C
    C   1.0     0.782647    -0.000669     0.026195  Biso 1.000000     C
    C   1.0     0.336189    -0.001655     0.238962  Biso 1.000000     C
    C   1.0     0.852251    -0.001654     0.238963  Biso 1.000000     C
    C   1.0     0.397158     0.950232     0.200976  Biso 1.000000     C
    C   1.0     0.913219     0.950235     0.200975  Biso 1.000000     C
    C   1.0     0.379462     0.948649     0.147135  Biso 1.000000     C
    C   1.0     0.895522     0.948650     0.147136  Biso 1.000000     C
    C   1.0     0.300775    -0.002408     0.128880  Biso 1.000000     C
    C   1.0     0.816833    -0.002407     0.128881  Biso 1.000000     C
    C   1.0     0.259961     0.060201     0.167410  Biso 1.000000     C
    C   1.0     0.776021     0.060204     0.167412  Biso 1.000000     C
    C   1.0     0.277106     0.059927     0.221493  Biso 1.000000     C
    C   1.0     0.793168     0.059929     0.221494  Biso 1.000000     C
    C   1.0     0.303283     0.199062     0.397368  Biso 1.000000     C
    C   1.0     0.819347     0.199064     0.397368  Biso 1.000000     C
    C   1.0     0.311555     0.103825     0.373922  Biso 1.000000     C
    C   1.0     0.827620     0.103826     0.373922  Biso 1.000000     C
    C   1.0     0.342314     0.094353     0.320454  Biso 1.000000     C
    C   1.0     0.858377     0.094355     0.320455  Biso 1.000000     C
    C   1.0     0.362382     0.183571     0.292557  Biso 1.000000     C
    C   1.0     0.878444     0.183574     0.292556  Biso 1.000000     C
    C   1.0     0.353051     0.275544     0.319373  Biso 1.000000     C
    C   1.0     0.869114     0.275546     0.319373  Biso 1.000000     C
    C   1.0     0.402861     0.731019     0.341244  Biso 1.000000     C
    C   1.0     0.918923     0.731021     0.341245  Biso 1.000000     C
    C   1.0     0.380496     0.821478     0.309976  Biso 1.000000     C
    C   1.0     0.896558     0.821480     0.309976  Biso 1.000000     C
    C   1.0     0.393532     0.917224     0.325714  Biso 1.000000     C
    C   1.0     0.909595     0.917226     0.325714  Biso 1.000000     C
    C   1.0     0.429440     0.914827     0.373156  Biso 1.000000     C
    C   1.0     0.945506     0.914828     0.373155  Biso 1.000000     C
    C   1.0     0.448729     0.820669     0.402519  Biso 1.000000     C
    C   1.0     0.964794     0.820671     0.402518  Biso 1.000000     C
    C   1.0     0.007561     0.711904     0.145343  Biso 1.000000     C
    C   1.0     0.523627     0.711902     0.145342  Biso 1.000000     C
    C   1.0     0.497211     0.684625     0.106413  Biso 1.000000     C
    C   1.0     0.000000     0.684627     0.106414  Biso 1.000000     C
    C   1.0     0.468697     0.655357     0.063290  Biso 1.000000     C
    C   1.0     0.984760     0.655360     0.063292  Biso 1.000000     C
    C   1.0     0.443182     0.629844     0.023403  Biso 1.000000     C
    C   1.0     0.959244     0.629848     0.023405  Biso 1.000000     C
    C   1.0     0.037467     0.743620     0.190212  Biso 1.000000     C
    C   1.0     0.553531     0.743619     0.190212  Biso 1.000000     C
    C   1.0     0.071169     0.831301     0.183608  Biso 1.000000     C
    C   1.0     0.587230     0.831303     0.183609  Biso 1.000000     C
    C   1.0     0.100910     0.862540     0.227591  Biso 1.000000     C
    C   1.0     0.616972     0.862541     0.227592  Biso 1.000000     C
    C   1.0     0.097227     0.807360     0.279232  Biso 1.000000     C
    C   1.0     0.613289     0.807360     0.279232  Biso 1.000000     C
    C   1.0     0.063808     0.720614     0.286321  Biso 1.000000     C
    C   1.0     0.579870     0.720613     0.286321  Biso 1.000000     C
    C   1.0     0.034271     0.688522     0.242425  Biso 1.000000     C
    C   1.0     0.550335     0.688521     0.242424  Biso 1.000000     C
    C   1.0     0.385343     0.532123     0.996728  Biso 1.000000     C
    C   1.0     0.901404     0.532126     0.996730  Biso 1.000000     C
    C   1.0     0.316428     0.523957     0.996926  Biso 1.000000     C
    C   1.0     0.832489     0.523962     0.996927  Biso 1.000000     C
    C   1.0     0.289398     0.502638     0.949236  Biso 1.000000     C
    C   1.0     0.805460     0.502643     0.949236  Biso 1.000000     C
    C   1.0     0.330396     0.488278     0.900191  Biso 1.000000     C
    C   1.0     0.846459     0.488280     0.900192  Biso 1.000000     C
    C   1.0     0.399280     0.493399     0.899851  Biso 1.000000     C
    C   1.0     0.915343     0.493401     0.899853  Biso 1.000000     C
    C   1.0     0.426280     0.515411     0.947327  Biso 1.000000     C
    C   1.0     0.942342     0.515412     0.947329  Biso 1.000000     C
    C   1.0     0.267893     0.611929     0.338560  Biso 1.000000     C
    C   1.0     0.783956     0.611932     0.338561  Biso 1.000000     C
    C   1.0     0.228220     0.698798     0.315684  Biso 1.000000     C
    C   1.0     0.744281     0.698798     0.315684  Biso 1.000000     C
    C   1.0     0.175753     0.751182     0.348913  Biso 1.000000     C
    C   1.0     0.691814     0.751181     0.348913  Biso 1.000000     C
    C   1.0     0.166469     0.716243     0.404152  Biso 1.000000     C
    C   1.0     0.682531     0.716244     0.404152  Biso 1.000000     C
    C   1.0     0.208324     0.628045     0.423742  Biso 1.000000     C
    C   1.0     0.724387     0.628046     0.423743  Biso 1.000000     C
    C   1.0     0.135406     0.053528     0.393212  Biso 1.000000     C
    C   1.0     0.651471     0.053528     0.393210  Biso 1.000000     C
    C   1.0     0.165591     0.965176     0.377529  Biso 1.000000     C
    C   1.0     0.681654     0.965176     0.377528  Biso 1.000000     C
    C   1.0     0.121020     0.934225     0.342654  Biso 1.000000     C
    C   1.0     0.637081     0.934224     0.342655  Biso 1.000000     C
    C   1.0     0.046972    -0.003555     0.326790  Biso 1.000000     C
    C   1.0     0.563034    -0.003555     0.326790  Biso 1.000000     C
    C   1.0     0.040436     0.095978     0.344589  Biso 1.000000     C
    C   1.0     0.556498     0.095978     0.344589  Biso 1.000000     C
    C   1.0     0.364543     0.652838     0.742997  Biso 1.000000     C
    C   1.0     0.880608     0.652839     0.742997  Biso 1.000000     C
    C   1.0     0.342092     0.614161     0.794604  Biso 1.000000     C
    C   1.0     0.858157     0.614162     0.794604  Biso 1.000000     C
    C   1.0     0.323171     0.514618     0.799907  Biso 1.000000     C
    C   1.0     0.839235     0.514620     0.799908  Biso 1.000000     C
    C   1.0     0.327283     0.460819     0.751889  Biso 1.000000     C
    C   1.0     0.843345     0.460823     0.751890  Biso 1.000000     C
    C   1.0     0.349707     0.505748     0.701914  Biso 1.000000     C
    C   1.0     0.865770     0.505751     0.701914  Biso 1.000000     C
    C   1.0     0.229986     0.224088     0.880196  Biso 1.000000     C
    C   1.0     0.746046     0.224093     0.880197  Biso 1.000000     C
    C   1.0     0.273075     0.296857     0.882425  Biso 1.000000     C
    C   1.0     0.789136     0.296862     0.882427  Biso 1.000000     C
    C   1.0     0.258415     0.393332     0.852980  Biso 1.000000     C
    C   1.0     0.774477     0.393336     0.852980  Biso 1.000000     C
    C   1.0     0.199726     0.412706     0.824504  Biso 1.000000     C
    C   1.0     0.715789     0.412711     0.824504  Biso 1.000000     C
    C   1.0     0.159768     0.334953     0.825232  Biso 1.000000     C
    C   1.0     0.675829     0.334960     0.825233  Biso 1.000000     C
    N   1.0     0.152008     0.944486     0.725661  Biso 1.000000     N
    N   1.0     0.668068     0.944484     0.725663  Biso 1.000000     N
    N   1.0     0.180925     0.658455     0.649590  Biso 1.000000     N
    N   1.0     0.696988     0.658454     0.649591  Biso 1.000000     N
    N   1.0     0.069139     0.213709     0.633306  Biso 1.000000     N
    N   1.0     0.585203     0.213708     0.633306  Biso 1.000000     N
    N   1.0     0.374437     0.107841     0.696334  Biso 1.000000     N
    N   1.0     0.890501     0.107842     0.696334  Biso 1.000000     N
    N   1.0     0.247412     0.366488     0.629047  Biso 1.000000     N
    N   1.0     0.763475     0.366488     0.629047  Biso 1.000000     N
    N   1.0     0.420707     0.816134     0.644193  Biso 1.000000     N
    N   1.0     0.936770     0.816135     0.644193  Biso 1.000000     N
    N   1.0     0.203117     0.472715     0.169716  Biso 1.000000     N
    N   1.0     0.719177     0.472718     0.169716  Biso 1.000000     N
    N   1.0     0.136730     0.341289     0.324175  Biso 1.000000     N
    N   1.0     0.652795     0.341288     0.324175  Biso 1.000000     N
    N   1.0     0.330798     0.701260     0.168913  Biso 1.000000     N
    N   1.0     0.846858     0.701265     0.168910  Biso 1.000000     N
    N   1.0     0.352763    -0.001848     0.295006  Biso 1.000000     N
    N   1.0     0.868827    -0.001846     0.295006  Biso 1.000000     N
    N   1.0     0.324054     0.284296     0.371001  Biso 1.000000     N
    N   1.0     0.840117     0.284299     0.371001  Biso 1.000000     N
    N   1.0     0.435953     0.728945     0.387275  Biso 1.000000     N
    N   1.0     0.952017     0.728947     0.387275  Biso 1.000000     N
    N   1.0     0.130565     0.834441     0.324417  Biso 1.000000     N
    N   1.0     0.646627     0.834440     0.324417  Biso 1.000000     N
    N   1.0     0.257923     0.576002     0.391504  Biso 1.000000     N
    N   1.0     0.773986     0.576002     0.391504  Biso 1.000000     N
    N   1.0     0.084319     0.126032     0.376721  Biso 1.000000     N
    N   1.0     0.600382     0.126031     0.376721  Biso 1.000000     N
    N   1.0     0.302034     0.469010     0.851155  Biso 1.000000     N
    N   1.0     0.818097     0.469012     0.851156  Biso 1.000000     N
    N   1.0     0.368458     0.600808     0.696806  Biso 1.000000     N
    N   1.0     0.884522     0.600810     0.696806  Biso 1.000000     N
    N   1.0     0.174419     0.240413     0.851792  Biso 1.000000     N
    N   1.0     0.690480     0.240419     0.851792  Biso 1.000000     N
    O   1.0     0.099001     0.457418     0.661552  Biso 1.000000     O
    O   1.0     0.615065     0.457415     0.661552  Biso 1.000000     O
    O   1.0     0.497311     0.434911     0.666122  Biso 1.000000     O
    O   1.0     0.000000     0.434911     0.666121  Biso 1.000000     O
    O   1.0     0.009566     0.606792     0.680445  Biso 1.000000     O
    O   1.0     0.525631     0.606791     0.680446  Biso 1.000000     O
    O   1.0     0.033756     0.462490     0.751185  Biso 1.000000     O
    O   1.0     0.549821     0.462489     0.751185  Biso 1.000000     O
    O   1.0     0.114096     0.625118     0.536629  Biso 1.000000     O
    O   1.0     0.630160     0.625117     0.536630  Biso 1.000000     O
    O   1.0     0.004577     0.556286     0.555116  Biso 1.000000     O
    O   1.0     0.520642     0.556285     0.555115  Biso 1.000000     O
    O   1.0     0.007251     0.741729     0.555290  Biso 1.000000     O
    O   1.0     0.523316     0.741728     0.555291  Biso 1.000000     O
    O   1.0     0.031048     0.655020     0.467943  Biso 1.000000     O
    O   1.0     0.547114     0.655020     0.467943  Biso 1.000000     O
    O   1.0     0.138120     0.384802     0.543427  Biso 1.000000     O
    O   1.0     0.654185     0.384802     0.543427  Biso 1.000000     O
    O   1.0     0.125837     0.441166     0.444273  Biso 1.000000     O
    O   1.0     0.641900     0.441167     0.444273  Biso 1.000000     O
    O   1.0     0.149154     0.256617     0.472495  Biso 1.000000     O
    O   1.0     0.665218     0.256617     0.472495  Biso 1.000000     O
    O   1.0     0.236504     0.367119     0.479687  Biso 1.000000     O
    O   1.0     0.752567     0.367120     0.479687  Biso 1.000000     O
    O   1.0     0.406383     0.484978     0.359099  Biso 1.000000     O
    O   1.0     0.922448     0.484977     0.359099  Biso 1.000000     O
    O   1.0     0.008102     0.507114     0.354606  Biso 1.000000     O
    O   1.0     0.524169     0.507113     0.354605  Biso 1.000000     O
    O   1.0     0.495743     0.335274     0.340339  Biso 1.000000     O
    O   1.0     0.000000     0.335274     0.340339  Biso 1.000000     O
    O   1.0     0.471710     0.479337     0.269510  Biso 1.000000     O
    O   1.0     0.987775     0.479338     0.269510  Biso 1.000000     O
    O   1.0     0.390840     0.316665     0.484060  Biso 1.000000     O
    O   1.0     0.906904     0.316666     0.484060  Biso 1.000000     O
    O   1.0     0.499706     0.387152     0.465406  Biso 1.000000     O
    O   1.0     0.000000     0.387154     0.465406  Biso 1.000000     O
    O   1.0     0.498289     0.201462     0.465627  Biso 1.000000     O
    O   1.0     0.000000     0.201465     0.465628  Biso 1.000000     O
    O   1.0     0.473849     0.288739     0.552788  Biso 1.000000     O
    O   1.0     0.989913     0.288743     0.552788  Biso 1.000000     O
    O   1.0     0.367056     0.557639     0.477472  Biso 1.000000     O
    O   1.0     0.883121     0.557639     0.477473  Biso 1.000000     O
    O   1.0     0.378084     0.502331     0.576828  Biso 1.000000     O
    O   1.0     0.894148     0.502333     0.576829  Biso 1.000000     O
    O   1.0     0.356408     0.686781     0.547977  Biso 1.000000     O
    O   1.0     0.872472     0.686783     0.547976  Biso 1.000000     O
    O   1.0     0.268152     0.578062     0.540843  Biso 1.000000     O
    O   1.0     0.784216     0.578063     0.540842  Biso 1.000000     O
    S   1.0     0.030339     0.491676     0.691611  Biso 1.000000     S
    S   1.0     0.546404     0.491674     0.691611  Biso 1.000000     S
    S   1.0     0.040350     0.646565     0.529142  Biso 1.000000     S
    S   1.0     0.556415     0.646564     0.529142  Biso 1.000000     S
    S   1.0     0.162577     0.363333     0.483169  Biso 1.000000     S
    S   1.0     0.678641     0.363333     0.483169  Biso 1.000000     S
    S   1.0     0.475063     0.450424     0.329115  Biso 1.000000     S
    S   1.0     0.991128     0.450424     0.329115  Biso 1.000000     S
    S   1.0     0.464590     0.296541     0.491608  Biso 1.000000     S
    S   1.0     0.980654     0.296543     0.491608  Biso 1.000000     S
    S   1.0     0.342252     0.580357     0.537523  Biso 1.000000     S
    S   1.0     0.858316     0.580358     0.537523  Biso 1.000000     S
   Cd   1.0     0.178697     0.514198     0.595162  Biso 1.000000    Cd
   Cd   1.0     0.694761     0.514198     0.595163  Biso 1.000000    Cd
   Cd   1.0     0.032986     0.376459     0.583394  Biso 1.000000    Cd
   Cd   1.0     0.549051     0.376458     0.583394  Biso 1.000000    Cd
   Cd   1.0     0.437728     0.643590     0.617651  Biso 1.000000    Cd
   Cd   1.0     0.953793     0.643590     0.617651  Biso 1.000000    Cd
   Cd   1.0     0.326780     0.428461     0.425448  Biso 1.000000    Cd
   Cd   1.0     0.842843     0.428463     0.425449  Biso 1.000000    Cd
   Cd   1.0     0.472210     0.566627     0.437265  Biso 1.000000    Cd
   Cd   1.0     0.988275     0.566629     0.437265  Biso 1.000000    Cd
   Cd   1.0     0.067276     0.298745     0.403275  Biso 1.000000    Cd
   Cd   1.0     0.583342     0.298743     0.403274  Biso 1.000000    Cd
