#======================================================================

# CRYSTAL DATA

#----------------------------------------------------------------------

data_VESTA_phase_1


_pd_phase_name                         MOF
_cell_length_a                         13.20100
_cell_length_b                         23.70700
_cell_length_c                         16.26700
_cell_angle_alpha                      90.02300
_cell_angle_beta                       89.99500
_cell_angle_gamma                      90.00000
_symmetry_space_group_name_H-M         "P 1"
_symmetry_Int_Tables_number            1

loop_
_symmetry_equiv_pos_as_xyz
   "x, y, z"

loop_
   _atom_site_label
   _atom_site_occupancy
   _atom_site_fract_x
   _atom_site_fract_y
   _atom_site_fract_z
   _atom_site_adp_type
   _atom_site_B_iso_or_equiv
   _atom_site_type_symbol
    H   1.0     0.901527     0.744569     0.766030  Biso 1.000000     H
    H   1.0     0.611386     0.694500     0.998707  Biso 1.000000     H
    H   1.0     0.885940     0.078518     0.821876  Biso 1.000000     H
    H   1.0     0.867239     0.662456     0.313204  Biso 1.000000     H
    H   1.0     0.071503     0.101648     0.822697  Biso 1.000000     H
    H   1.0     0.124647     0.936766     0.927477  Biso 1.000000     H
    H   1.0     0.193664     0.028188     0.877780  Biso 1.000000     H
    H   1.0     0.850903     0.539579     0.778142  Biso 1.000000     H
    H   1.0     0.893585     0.690852     0.633847  Biso 1.000000     H
    H   1.0     0.868507     0.585867     0.639172  Biso 1.000000     H
    H   1.0     0.598610     0.755284     0.265898  Biso 1.000000     H
    H   1.0     0.888549     0.805508     0.498620  Biso 1.000000     H
    H   1.0     0.614112     0.421445     0.321722  Biso 1.000000     H
    H   1.0     0.632443     0.837643     0.813052  Biso 1.000000     H
    H   1.0     0.428539     0.398272     0.322567  Biso 1.000000     H
    H   1.0     0.375277     0.563152     0.427544  Biso 1.000000     H
    H   1.0     0.306327     0.471700     0.377761  Biso 1.000000     H
    H   1.0     0.649280     0.960285     0.277987  Biso 1.000000     H
    H   1.0     0.606535     0.808931     0.133719  Biso 1.000000     H
    H   1.0     0.631617     0.913913     0.139036  Biso 1.000000     H
    H   1.0     0.901570     0.255456     0.734050  Biso 1.000000     H
    H   1.0     0.611406     0.305523     0.501372  Biso 1.000000     H
    H   1.0     0.885920     0.921503     0.678162  Biso 1.000000     H
    H   1.0     0.867279     0.337548     0.186852  Biso 1.000000     H
    H   1.0     0.071485     0.898378     0.677340  Biso 1.000000     H
    H   1.0     0.124668     0.063268     0.572581  Biso 1.000000     H
    H   1.0     0.193652     0.971844     0.622265  Biso 1.000000     H
    H   1.0     0.850903     0.460442     0.721925  Biso 1.000000     H
    H   1.0     0.893616     0.309179     0.866229  Biso 1.000000     H
    H   1.0     0.868513     0.414162     0.860896  Biso 1.000000     H
    H   1.0     0.598603     0.244716     0.234163  Biso 1.000000     H
    H   1.0     0.888594     0.194482     0.001434  Biso 1.000000     H
    H   1.0     0.614094     0.578542     0.178355  Biso 1.000000     H
    H   1.0     0.632445     0.162366     0.687019  Biso 1.000000     H
    H   1.0     0.428521     0.601714     0.177485  Biso 1.000000     H
    H   1.0     0.375303     0.436836     0.072498  Biso 1.000000     H
    H   1.0     0.306331     0.528288     0.122273  Biso 1.000000     H
    H   1.0     0.649358     0.039722     0.222072  Biso 1.000000     H
    H   1.0     0.606560     0.191072     0.366342  Biso 1.000000     H
    H   1.0     0.631685     0.086093     0.361025  Biso 1.000000     H
    H   1.0     0.098471     0.255441     0.234035  Biso 1.000000     H
    H   1.0     0.388608     0.305508     0.001356  Biso 1.000000     H
    H   1.0     0.114054     0.921489     0.178181  Biso 1.000000     H
    H   1.0     0.132756     0.337552     0.686857  Biso 1.000000     H
    H   1.0     0.928492     0.898358     0.177357  Biso 1.000000     H
    H   1.0     0.875346     0.063243     0.072587  Biso 1.000000     H
    H   1.0     0.806330     0.971819     0.122278  Biso 1.000000     H
    H   1.0     0.149097     0.460430     0.221919  Biso 1.000000     H
    H   1.0     0.106419     0.309159     0.366217  Biso 1.000000     H
    H   1.0     0.131497     0.414143     0.360889  Biso 1.000000     H
    H   1.0     0.401379     0.244722     0.734161  Biso 1.000000     H
    H   1.0     0.111446     0.194498     0.501444  Biso 1.000000     H
    H   1.0     0.385879     0.578559     0.678349  Biso 1.000000     H
    H   1.0     0.367554     0.162365     0.187003  Biso 1.000000     H
    H   1.0     0.571452     0.601733     0.677500  Biso 1.000000     H
    H   1.0     0.624716     0.436856     0.572517  Biso 1.000000     H
    H   1.0     0.693664     0.528308     0.622301  Biso 1.000000     H
    H   1.0     0.350705     0.039723     0.722068  Biso 1.000000     H
    H   1.0     0.393444     0.191075     0.866339  Biso 1.000000     H
    H   1.0     0.368362     0.086093     0.861020  Biso 1.000000     H
    H   1.0     0.098429     0.744554     0.266015  Biso 1.000000     H
    H   1.0     0.388589     0.694485     0.498696  Biso 1.000000     H
    H   1.0     0.114076     0.078503     0.321894  Biso 1.000000     H
    H   1.0     0.132720     0.662461     0.813206  Biso 1.000000     H
    H   1.0     0.928510     0.101628     0.322713  Biso 1.000000     H
    H   1.0     0.875326     0.936740     0.427479  Biso 1.000000     H
    H   1.0     0.806342     0.028163     0.377789  Biso 1.000000     H
    H   1.0     0.149096     0.539568     0.278134  Biso 1.000000     H
    H   1.0     0.106383     0.690833     0.133835  Biso 1.000000     H
    H   1.0     0.131487     0.585850     0.139164  Biso 1.000000     H
    H   1.0     0.401384     0.755291     0.765895  Biso 1.000000     H
    H   1.0     0.111402     0.805526     0.998632  Biso 1.000000     H
    H   1.0     0.385899     0.421463     0.821715  Biso 1.000000     H
    H   1.0     0.367538     0.837640     0.313035  Biso 1.000000     H
    H   1.0     0.571473     0.398292     0.822583  Biso 1.000000     H
    H   1.0     0.624691     0.563173     0.927561  Biso 1.000000     H
    H   1.0     0.693663     0.471721     0.877788  Biso 1.000000     H
    H   1.0     0.350633     0.960286     0.777982  Biso 1.000000     H
    H   1.0     0.393424     0.808933     0.633714  Biso 1.000000     H
    H   1.0     0.368301     0.913912     0.639030  Biso 1.000000     H
    C   1.0     0.889800     0.699015     0.765716  Biso 1.000000     C
    C   1.0     0.724033     0.811995     0.972629  Biso 1.000000     C
    C   1.0     0.844942     0.599529     0.143027  Biso 1.000000     C
    C   1.0     0.847337     0.588385     0.055573  Biso 1.000000     C
    C   1.0     0.856244     0.593151     0.925313  Biso 1.000000     C
    C   1.0     0.866994     0.617674     0.843380  Biso 1.000000     C
    C   1.0     0.636311     0.737889     0.991726  Biso 1.000000     C
    C   1.0     0.969938     0.959782     0.901310  Biso 1.000000     C
    C   1.0     0.814471     0.845162     0.958915  Biso 1.000000     C
    C   1.0     0.925076     0.906864     0.929005  Biso 1.000000     C
    C   1.0     0.941863     0.048552     0.844889  Biso 1.000000     C
    C   1.0     0.854620     0.634528     0.261307  Biso 1.000000     C
    C   1.0     0.044877     0.061024     0.845275  Biso 1.000000     C
    C   1.0     0.074618     0.969302     0.903496  Biso 1.000000     C
    C   1.0     0.112329     0.020495     0.875315  Biso 1.000000     C
    C   1.0     0.861600     0.584843     0.771868  Biso 1.000000     C
    C   1.0     0.884678     0.669137     0.692240  Biso 1.000000     C
    C   1.0     0.870846     0.610747     0.695567  Biso 1.000000     C
    C   1.0     0.610330     0.800839     0.265584  Biso 1.000000     C
    C   1.0     0.775918     0.687980     0.472685  Biso 1.000000     C
    C   1.0     0.655039     0.900506     0.642920  Biso 1.000000     C
    C   1.0     0.652716     0.911612     0.555468  Biso 1.000000     C
    C   1.0     0.643956     0.906780     0.425184  Biso 1.000000     C
    C   1.0     0.633154     0.882223     0.343246  Biso 1.000000     C
    C   1.0     0.863631     0.762111     0.491685  Biso 1.000000     C
    C   1.0     0.530028     0.540168     0.401309  Biso 1.000000     C
    C   1.0     0.685476     0.654808     0.458952  Biso 1.000000     C
    C   1.0     0.574869     0.593087     0.429072  Biso 1.000000     C
    C   1.0     0.558175     0.451401     0.344780  Biso 1.000000     C
    C   1.0     0.645157     0.865548     0.761174  Biso 1.000000     C
    C   1.0     0.455134     0.438906     0.345180  Biso 1.000000     C
    C   1.0     0.425323     0.530625     0.403512  Biso 1.000000     C
    C   1.0     0.387654     0.479417     0.375284  Biso 1.000000     C
    C   1.0     0.638593     0.915015     0.271730  Biso 1.000000     C
    C   1.0     0.615470     0.830676     0.192109  Biso 1.000000     C
    C   1.0     0.629310     0.889066     0.195433  Biso 1.000000     C
    C   1.0     0.889834     0.301009     0.734361  Biso 1.000000     C
    C   1.0     0.724053     0.188030     0.527439  Biso 1.000000     C
    C   1.0     0.844968     0.400477     0.357031  Biso 1.000000     C
    C   1.0     0.847356     0.411623     0.444483  Biso 1.000000     C
    C   1.0     0.856264     0.406865     0.574758  Biso 1.000000     C
    C   1.0     0.867013     0.382345     0.656692  Biso 1.000000     C
    C   1.0     0.636332     0.262135     0.508348  Biso 1.000000     C
    C   1.0     0.969955     0.040245     0.598741  Biso 1.000000     C
    C   1.0     0.814490     0.154864     0.541152  Biso 1.000000     C
    C   1.0     0.925093     0.093164     0.571057  Biso 1.000000     C
    C   1.0     0.941846     0.951471     0.655153  Biso 1.000000     C
    C   1.0     0.854650     0.365475     0.238750  Biso 1.000000     C
    C   1.0     0.044861     0.939003     0.654767  Biso 1.000000     C
    C   1.0     0.074636     0.030729     0.596558  Biso 1.000000     C
    C   1.0     0.112316     0.979535     0.624731  Biso 1.000000     C
    C   1.0     0.861610     0.415179     0.728201  Biso 1.000000     C
    C   1.0     0.884705     0.330890     0.807835  Biso 1.000000     C
    C   1.0     0.870860     0.389279     0.804504  Biso 1.000000     C
    C   1.0     0.610341     0.199163     0.234476  Biso 1.000000     C
    C   1.0     0.775957     0.312009     0.027383  Biso 1.000000     C
    C   1.0     0.655051     0.099502     0.857148  Biso 1.000000     C
    C   1.0     0.652736     0.088395     0.944600  Biso 1.000000     C
    C   1.0     0.643987     0.093223     0.074872  Biso 1.000000     C
    C   1.0     0.633189     0.117780     0.156813  Biso 1.000000     C
    C   1.0     0.863673     0.237879     0.008373  Biso 1.000000     C
    C   1.0     0.530043     0.459820     0.098751  Biso 1.000000     C
    C   1.0     0.685513     0.345181     0.041117  Biso 1.000000     C
    C   1.0     0.574896     0.406901     0.070995  Biso 1.000000     C
    C   1.0     0.558166     0.548587     0.155287  Biso 1.000000     C
    C   1.0     0.645166     0.134461     0.738895  Biso 1.000000     C
    C   1.0     0.455125     0.561081     0.154876  Biso 1.000000     C
    C   1.0     0.425339     0.469362     0.096538  Biso 1.000000     C
    C   1.0     0.387657     0.520571     0.124760  Biso 1.000000     C
    C   1.0     0.638649     0.084990     0.228328  Biso 1.000000     C
    C   1.0     0.615498     0.169328     0.307952  Biso 1.000000     C
    C   1.0     0.629362     0.110939     0.304627  Biso 1.000000     C
    C   1.0     0.110198     0.300995     0.234349  Biso 1.000000     C
    C   1.0     0.275960     0.188013     0.027426  Biso 1.000000     C
    C   1.0     0.155053     0.400480     0.857034  Biso 1.000000     C
    C   1.0     0.152659     0.411624     0.944488  Biso 1.000000     C
    C   1.0     0.143751     0.406857     0.074748  Biso 1.000000     C
    C   1.0     0.133002     0.382335     0.156682  Biso 1.000000     C
    C   1.0     0.363683     0.262119     0.008338  Biso 1.000000     C
    C   1.0     0.030055     0.040227     0.098753  Biso 1.000000     C
    C   1.0     0.185523     0.154848     0.041154  Biso 1.000000     C
    C   1.0     0.074917     0.093145     0.071059  Biso 1.000000     C
    C   1.0     0.058131     0.951455     0.155170  Biso 1.000000     C
    C   1.0     0.145379     0.365479     0.738754  Biso 1.000000     C
    C   1.0     0.955118     0.938983     0.154781  Biso 1.000000     C
    C   1.0     0.925376     0.030706     0.096566  Biso 1.000000     C
    C   1.0     0.887665     0.979512     0.124744  Biso 1.000000     C
    C   1.0     0.138401     0.415166     0.228193  Biso 1.000000     C
    C   1.0     0.115324     0.330873     0.307824  Biso 1.000000     C
    C   1.0     0.129156     0.389263     0.304496  Biso 1.000000     C
    C   1.0     0.389656     0.199168     0.734474  Biso 1.000000     C
    C   1.0     0.224076     0.312026     0.527380  Biso 1.000000     C
    C   1.0     0.344955     0.099503     0.357136  Biso 1.000000     C
    C   1.0     0.347278     0.088396     0.444587  Biso 1.000000     C
    C   1.0     0.356036     0.093228     0.574872  Biso 1.000000     C
    C   1.0     0.366835     0.117784     0.656811  Biso 1.000000     C
    C   1.0     0.136363     0.237895     0.508378  Biso 1.000000     C
    C   1.0     0.469965     0.459838     0.598753  Biso 1.000000     C
    C   1.0     0.314517     0.345199     0.541107  Biso 1.000000     C
    C   1.0     0.425123     0.406919     0.570995  Biso 1.000000     C
    C   1.0     0.441817     0.548604     0.655289  Biso 1.000000     C
    C   1.0     0.354838     0.134460     0.238882  Biso 1.000000     C
    C   1.0     0.544857     0.561100     0.654887  Biso 1.000000     C
    C   1.0     0.574669     0.469382     0.596551  Biso 1.000000     C
    C   1.0     0.612338     0.520590     0.624780  Biso 1.000000     C
    C   1.0     0.361394     0.084992     0.728326  Biso 1.000000     C
    C   1.0     0.384514     0.169331     0.807949  Biso 1.000000     C
    C   1.0     0.370672     0.110941     0.804624  Biso 1.000000     C
    C   1.0     0.110165     0.699001     0.265702  Biso 1.000000     C
    C   1.0     0.275942     0.811978     0.472623  Biso 1.000000     C
    C   1.0     0.155032     0.599531     0.643029  Biso 1.000000     C
    C   1.0     0.152642     0.588385     0.555576  Biso 1.000000     C
    C   1.0     0.143733     0.593143     0.425302  Biso 1.000000     C
    C   1.0     0.132986     0.617664     0.343369  Biso 1.000000     C
    C   1.0     0.363663     0.737874     0.491717  Biso 1.000000     C
    C   1.0     0.030040     0.959762     0.401319  Biso 1.000000     C
    C   1.0     0.185506     0.845143     0.458903  Biso 1.000000     C
    C   1.0     0.074901     0.906845     0.429009  Biso 1.000000     C
    C   1.0     0.058149     0.048535     0.344905  Biso 1.000000     C
    C   1.0     0.145348     0.634534     0.761308  Biso 1.000000     C
    C   1.0     0.955134     0.061004     0.345290  Biso 1.000000     C
    C   1.0     0.925359     0.969278     0.403501  Biso 1.000000     C
    C   1.0     0.887679     0.020471     0.375325  Biso 1.000000     C
    C   1.0     0.138389     0.584831     0.271859  Biso 1.000000     C
    C   1.0     0.115294     0.669121     0.192228  Biso 1.000000     C
    C   1.0     0.129139     0.610732     0.195556  Biso 1.000000     C
    C   1.0     0.389647     0.800844     0.765581  Biso 1.000000     C
    C   1.0     0.224037     0.688000     0.972678  Biso 1.000000     C
    C   1.0     0.344937     0.900505     0.142907  Biso 1.000000     C
    C   1.0     0.347257     0.911613     0.055456  Biso 1.000000     C
    C   1.0     0.356006     0.906785     0.925183  Biso 1.000000     C
    C   1.0     0.366802     0.882228     0.843242  Biso 1.000000     C
    C   1.0     0.136322     0.762129     0.991690  Biso 1.000000     C
    C   1.0     0.469951     0.540188     0.901311  Biso 1.000000     C
    C   1.0     0.314481     0.654828     0.958939  Biso 1.000000     C
    C   1.0     0.425098     0.593106     0.929068  Biso 1.000000     C
    C   1.0     0.441827     0.451419     0.844781  Biso 1.000000     C
    C   1.0     0.354821     0.865546     0.261160  Biso 1.000000     C
    C   1.0     0.544868     0.438925     0.845191  Biso 1.000000     C
    C   1.0     0.574655     0.530645     0.903524  Biso 1.000000     C
    C   1.0     0.612336     0.479436     0.875303  Biso 1.000000     C
    C   1.0     0.361341     0.915017     0.771726  Biso 1.000000     C
    C   1.0     0.384489     0.830678     0.692105  Biso 1.000000     C
    C   1.0     0.370625     0.889067     0.695428  Biso 1.000000     C
    N   1.0     0.733273     0.754987     0.985376  Biso 1.000000     N
    N   1.0     0.835192     0.538784     0.941486  Biso 1.000000     N
    N   1.0     0.830058     0.535947     0.025375  Biso 1.000000     N
    N   1.0     0.864130     0.625480     0.994608  Biso 1.000000     N
    N   1.0     0.881706     0.674342     0.839954  Biso 1.000000     N
    N   1.0     0.571712     0.781554     0.984170  Biso 1.000000     N
    N   1.0     0.628083     0.829900     0.971468  Biso 1.000000     N
    N   1.0     0.906374     0.820191     0.964333  Biso 1.000000     N
    N   1.0     0.824910     0.580457     0.271686  Biso 1.000000     N
    N   1.0     0.822650     0.899914     0.937024  Biso 1.000000     N
    N   1.0     0.818065     0.557640     0.194547  Biso 1.000000     N
    N   1.0     0.904551     0.999144     0.872155  Biso 1.000000     N
    N   1.0     0.977809     0.859796     0.945330  Biso 1.000000     N
    N   1.0     0.867955     0.648569     0.181724  Biso 1.000000     N
    N   1.0     0.766677     0.745007     0.485299  Biso 1.000000     N
    N   1.0     0.664968     0.961158     0.441378  Biso 1.000000     N
    N   1.0     0.670077     0.964030     0.525283  Biso 1.000000     N
    N   1.0     0.635981     0.874492     0.494474  Biso 1.000000     N
    N   1.0     0.618442     0.825553     0.339820  Biso 1.000000     N
    N   1.0     0.928233     0.718432     0.484252  Biso 1.000000     N
    N   1.0     0.871868     0.670072     0.471588  Biso 1.000000     N
    N   1.0     0.593574     0.679785     0.464366  Biso 1.000000     N
    N   1.0     0.674951     0.919606     0.771600  Biso 1.000000     N
    N   1.0     0.677292     0.600038     0.437105  Biso 1.000000     N
    N   1.0     0.681918     0.942401     0.694475  Biso 1.000000     N
    N   1.0     0.595444     0.500822     0.372091  Biso 1.000000     N
    N   1.0     0.522140     0.640173     0.445356  Biso 1.000000     N
    N   1.0     0.631889     0.851490     0.681576  Biso 1.000000     N
    N   1.0     0.733294     0.245038     0.514700  Biso 1.000000     N
    N   1.0     0.835204     0.461231     0.558583  Biso 1.000000     N
    N   1.0     0.830070     0.464061     0.474681  Biso 1.000000     N
    N   1.0     0.864155     0.374534     0.505464  Biso 1.000000     N
    N   1.0     0.881738     0.325678     0.660122  Biso 1.000000     N
    N   1.0     0.571734     0.218467     0.515895  Biso 1.000000     N
    N   1.0     0.628105     0.170121     0.528590  Biso 1.000000     N
    N   1.0     0.906392     0.179838     0.535740  Biso 1.000000     N
    N   1.0     0.824934     0.419545     0.228372  Biso 1.000000     N
    N   1.0     0.822669     0.100110     0.563032  Biso 1.000000     N
    N   1.0     0.818082     0.442363     0.305512  Biso 1.000000     N
    N   1.0     0.904565     0.000879     0.627891  Biso 1.000000     N
    N   1.0     0.977827     0.140234     0.554738  Biso 1.000000     N
    N   1.0     0.867986     0.351437     0.318332  Biso 1.000000     N
    N   1.0     0.766718     0.254983     0.014759  Biso 1.000000     N
    N   1.0     0.664998     0.038846     0.058673  Biso 1.000000     N
    N   1.0     0.670096     0.035978     0.974781  Biso 1.000000     N
    N   1.0     0.636006     0.125511     0.005584  Biso 1.000000     N
    N   1.0     0.618459     0.174449     0.160240  Biso 1.000000     N
    N   1.0     0.928274     0.281557     0.015816  Biso 1.000000     N
    N   1.0     0.871907     0.329917     0.028484  Biso 1.000000     N
    N   1.0     0.593612     0.320205     0.035698  Biso 1.000000     N
    N   1.0     0.674961     0.080404     0.728463  Biso 1.000000     N
    N   1.0     0.677321     0.399952     0.062963  Biso 1.000000     N
    N   1.0     0.681931     0.057609     0.805586  Biso 1.000000     N
    N   1.0     0.595446     0.499166     0.127980  Biso 1.000000     N
    N   1.0     0.522172     0.359816     0.054708  Biso 1.000000     N
    N   1.0     0.631894     0.148517     0.818496  Biso 1.000000     N
    N   1.0     0.266720     0.245021     0.014687  Biso 1.000000     N
    N   1.0     0.164797     0.461226     0.058575  Biso 1.000000     N
    N   1.0     0.169932     0.464062     0.974686  Biso 1.000000     N
    N   1.0     0.135868     0.374528     0.005454  Biso 1.000000     N
    N   1.0     0.118290     0.325667     0.160110  Biso 1.000000     N
    N   1.0     0.428282     0.218454     0.015890  Biso 1.000000     N
    N   1.0     0.371910     0.170108     0.028590  Biso 1.000000     N
    N   1.0     0.093619     0.179818     0.035733  Biso 1.000000     N
    N   1.0     0.175080     0.419552     0.728374  Biso 1.000000     N
    N   1.0     0.177342     0.100094     0.063033  Biso 1.000000     N
    N   1.0     0.181925     0.442369     0.805514  Biso 1.000000     N
    N   1.0     0.095442     0.000864     0.127906  Biso 1.000000     N
    N   1.0     0.022184     0.140214     0.054742  Biso 1.000000     N
    N   1.0     0.132043     0.351439     0.818337  Biso 1.000000     N
    N   1.0     0.233318     0.255000     0.514757  Biso 1.000000     N
    N   1.0     0.335023     0.038850     0.558677  Biso 1.000000     N
    N   1.0     0.329918     0.035979     0.474772  Biso 1.000000     N
    N   1.0     0.364015     0.125516     0.505582  Biso 1.000000     N
    N   1.0     0.381545     0.174455     0.660238  Biso 1.000000     N
    N   1.0     0.071761     0.281573     0.515819  Biso 1.000000     N
    N   1.0     0.128125     0.329934     0.528479  Biso 1.000000     N
    N   1.0     0.406420     0.320222     0.535695  Biso 1.000000     N
    N   1.0     0.325042     0.080403     0.228456  Biso 1.000000     N
    N   1.0     0.322701     0.399969     0.562954  Biso 1.000000     N
    N   1.0     0.318077     0.057608     0.305580  Biso 1.000000     N
    N   1.0     0.404548     0.499183     0.627976  Biso 1.000000     N
    N   1.0     0.477853     0.359834     0.554707  Biso 1.000000     N
    N   1.0     0.368111     0.148517     0.318480  Biso 1.000000     N
    N   1.0     0.266701     0.754970     0.485368  Biso 1.000000     N
    N   1.0     0.164796     0.538778     0.441476  Biso 1.000000     N
    N   1.0     0.169926     0.535946     0.525378  Biso 1.000000     N
    N   1.0     0.135841     0.625473     0.494596  Biso 1.000000     N
    N   1.0     0.118260     0.674331     0.339941  Biso 1.000000     N
    N   1.0     0.428262     0.781540     0.484161  Biso 1.000000     N
    N   1.0     0.371891     0.829886     0.471463  Biso 1.000000     N
    N   1.0     0.093603     0.820171     0.464327  Biso 1.000000     N
    N   1.0     0.175065     0.580464     0.771687  Biso 1.000000     N
    N   1.0     0.177326     0.899898     0.437029  Biso 1.000000     N
    N   1.0     0.181915     0.557645     0.694547  Biso 1.000000     N
    N   1.0     0.095430     0.999127     0.372167  Biso 1.000000     N
    N   1.0     0.022168     0.859774     0.445326  Biso 1.000000     N
    N   1.0     0.132009     0.648571     0.681727  Biso 1.000000     N
    N   1.0     0.233277     0.745025     0.985304  Biso 1.000000     N
    N   1.0     0.334996     0.961163     0.941383  Biso 1.000000     N
    N   1.0     0.329897     0.964031     0.025274  Biso 1.000000     N
    N   1.0     0.363986     0.874497     0.994472  Biso 1.000000     N
    N   1.0     0.381530     0.825559     0.839816  Biso 1.000000     N
    N   1.0     0.071720     0.718451     0.984248  Biso 1.000000     N
    N   1.0     0.128087     0.670092     0.971577  Biso 1.000000     N
    N   1.0     0.406382     0.679803     0.964361  Biso 1.000000     N
    N   1.0     0.325030     0.919604     0.271593  Biso 1.000000     N
    N   1.0     0.322673     0.600056     0.937100  Biso 1.000000     N
    N   1.0     0.318065     0.942400     0.194470  Biso 1.000000     N
    N   1.0     0.404547     0.500841     0.872086  Biso 1.000000     N
    N   1.0     0.477822     0.640193     0.945350  Biso 1.000000     N
    N   1.0     0.368091     0.851490     0.181559  Biso 1.000000     N
   Cd   1.0     0.899554     0.719337     0.972685  Biso 1.000000    Cd
   Cd   1.0     0.772462     0.472331     0.120834  Biso 1.000000    Cd
   Cd   1.0     0.600438     0.780648     0.472576  Biso 1.000000    Cd
   Cd   1.0     0.727572     0.027683     0.620820  Biso 1.000000    Cd
   Cd   1.0     0.899588     0.280682     0.527390  Biso 1.000000    Cd
   Cd   1.0     0.772452     0.527667     0.379230  Biso 1.000000    Cd
   Cd   1.0     0.600459     0.219351     0.027481  Biso 1.000000    Cd
   Cd   1.0     0.727558     0.972329     0.879232  Biso 1.000000    Cd
   Cd   1.0     0.100440     0.280671     0.027380  Biso 1.000000    Cd
   Cd   1.0     0.227531     0.527677     0.879227  Biso 1.000000    Cd
   Cd   1.0     0.399557     0.219360     0.527480  Biso 1.000000    Cd
   Cd   1.0     0.272421     0.972325     0.379236  Biso 1.000000    Cd
   Cd   1.0     0.100407     0.719325     0.472676  Biso 1.000000    Cd
   Cd   1.0     0.227541     0.472340     0.620831  Biso 1.000000    Cd
   Cd   1.0     0.399534     0.780658     0.972577  Biso 1.000000    Cd
   Cd   1.0     0.272436     0.027679     0.120825  Biso 1.000000    Cd
