#======================================================================

# CRYSTAL DATA

#----------------------------------------------------------------------

data_VESTA_phase_1


_pd_phase_name                         MOF
_cell_length_a                         15.97600
_cell_length_b                         19.73600
_cell_length_c                         13.54500
_cell_angle_alpha                      109.66100
_cell_angle_beta                       105.44000
_cell_angle_gamma                      94.81700
_symmetry_space_group_name_H-M         "P 1"
_symmetry_Int_Tables_number            1

loop_
_symmetry_equiv_pos_as_xyz
   "x, y, z"

loop_
   _atom_site_label
   _atom_site_occupancy
   _atom_site_fract_x
   _atom_site_fract_y
   _atom_site_fract_z
   _atom_site_adp_type
   _atom_site_B_iso_or_equiv
   _atom_site_type_symbol
    H   1.0     0.036633     0.425347     0.613674  Biso 1.000000     H
    H   1.0     0.036736     0.925503     0.613642  Biso 1.000000     H
    H   1.0     0.536628     0.425348     0.613681  Biso 1.000000     H
    H   1.0     0.536734     0.925506     0.613648  Biso 1.000000     H
    H   1.0     0.303314     0.428898     0.637439  Biso 1.000000     H
    H   1.0     0.303564     0.929260     0.638123  Biso 1.000000     H
    H   1.0     0.803308     0.428899     0.637440  Biso 1.000000     H
    H   1.0     0.803561     0.929258     0.638125  Biso 1.000000     H
    H   1.0     0.015536     0.138584     0.636834  Biso 1.000000     H
    H   1.0     0.015619     0.638400     0.636645  Biso 1.000000     H
    H   1.0     0.515530     0.138585     0.636841  Biso 1.000000     H
    H   1.0     0.515611     0.638403     0.636650  Biso 1.000000     H
    H   1.0     0.270036     0.130267     0.612284  Biso 1.000000     H
    H   1.0     0.270397     0.630522     0.612929  Biso 1.000000     H
    H   1.0     0.770029     0.130269     0.612288  Biso 1.000000     H
    H   1.0     0.770386     0.630520     0.612927  Biso 1.000000     H
    H   1.0     0.422153     0.026950     0.836308  Biso 1.000000     H
    H   1.0     0.422062     0.526641     0.836049  Biso 1.000000     H
    H   1.0     0.922145     0.026952     0.836310  Biso 1.000000     H
    H   1.0     0.922053     0.526642     0.836050  Biso 1.000000     H
    H   1.0     0.160129    -0.006452     0.039546  Biso 1.000000     H
    H   1.0     0.160174     0.493712     0.039698  Biso 1.000000     H
    H   1.0     0.660122    -0.006448     0.039551  Biso 1.000000     H
    H   1.0     0.660166     0.493714     0.039700  Biso 1.000000     H
    H   1.0     0.495748     0.141207     0.837182  Biso 1.000000     H
    H   1.0     0.495665     0.641037     0.837498  Biso 1.000000     H
    H   1.0     0.995743     0.141210     0.837183  Biso 1.000000     H
    H   1.0     0.995661     0.641039     0.837498  Biso 1.000000     H
    H   1.0     0.359701     0.276491     0.038794  Biso 1.000000     H
    H   1.0     0.359609     0.776314     0.039108  Biso 1.000000     H
    H   1.0     0.859695     0.276492     0.038797  Biso 1.000000     H
    H   1.0     0.859604     0.776314     0.039107  Biso 1.000000     H
    H   1.0     0.463269     0.074487     0.386432  Biso 1.000000     H
    H   1.0     0.463375     0.574643     0.386401  Biso 1.000000     H
    H   1.0     0.963259     0.074485     0.386428  Biso 1.000000     H
    H   1.0     0.963365     0.574641     0.386398  Biso 1.000000     H
    H   1.0     0.196430     0.070716     0.361895  Biso 1.000000     H
    H   1.0     0.196682     0.571076     0.362576  Biso 1.000000     H
    H   1.0     0.696422     0.070714     0.361901  Biso 1.000000     H
    H   1.0     0.696673     0.571074     0.362582  Biso 1.000000     H
    H   1.0     0.484394     0.361592     0.363441  Biso 1.000000     H
    H   1.0     0.484474     0.861409     0.363251  Biso 1.000000     H
    H   1.0     0.984381     0.361589     0.363434  Biso 1.000000     H
    H   1.0     0.984460     0.861404     0.363240  Biso 1.000000     H
    H   1.0     0.229598     0.369452     0.387095  Biso 1.000000     H
    H   1.0     0.229955     0.869708     0.387741  Biso 1.000000     H
    H   1.0     0.729584     0.369447     0.387089  Biso 1.000000     H
    H   1.0     0.729944     0.869704     0.387737  Biso 1.000000     H
    H   1.0     0.077937     0.473349     0.163992  Biso 1.000000     H
    H   1.0     0.077848     0.973041     0.163733  Biso 1.000000     H
    H   1.0     0.577930     0.473353     0.163995  Biso 1.000000     H
    H   1.0     0.577839     0.973041     0.163734  Biso 1.000000     H
    H   1.0     0.339827     0.506284     0.960347  Biso 1.000000     H
    H   1.0     0.339870     0.000000     0.960495  Biso 1.000000     H
    H   1.0     0.839817     0.506282     0.960347  Biso 1.000000     H
    H   1.0     0.839864     0.000000     0.960500  Biso 1.000000     H
    H   1.0     0.004347     0.358954     0.162531  Biso 1.000000     H
    H   1.0     0.004263     0.858783     0.162843  Biso 1.000000     H
    H   1.0     0.504335     0.358954     0.162525  Biso 1.000000     H
    H   1.0     0.504252     0.858781     0.162845  Biso 1.000000     H
    H   1.0     0.140403     0.223679     0.960919  Biso 1.000000     H
    H   1.0     0.140312     0.723503     0.961231  Biso 1.000000     H
    H   1.0     0.640392     0.223677     0.960915  Biso 1.000000     H
    H   1.0     0.640300     0.723500     0.961232  Biso 1.000000     H
    C   1.0     0.097130     0.407514     0.602897  Biso 1.000000     C
    C   1.0     0.097301     0.907716     0.603075  Biso 1.000000     C
    C   1.0     0.597124     0.407515     0.602903  Biso 1.000000     C
    C   1.0     0.597297     0.907717     0.603079  Biso 1.000000     C
    C   1.0     0.232811     0.409745     0.616265  Biso 1.000000     C
    C   1.0     0.233055     0.910051     0.616801  Biso 1.000000     C
    C   1.0     0.732805     0.409747     0.616268  Biso 1.000000     C
    C   1.0     0.733051     0.910050     0.616803  Biso 1.000000     C
    C   1.0     0.075315     0.147262     0.615521  Biso 1.000000     C
    C   1.0     0.075492     0.647217     0.615588  Biso 1.000000     C
    C   1.0     0.575308     0.147263     0.615527  Biso 1.000000     C
    C   1.0     0.575483     0.647218     0.615591  Biso 1.000000     C
    C   1.0     0.204153     0.142793     0.601744  Biso 1.000000     C
    C   1.0     0.204472     0.642972     0.602238  Biso 1.000000     C
    C   1.0     0.704146     0.142794     0.601750  Biso 1.000000     C
    C   1.0     0.704462     0.642971     0.602238  Biso 1.000000     C
    C   1.0     0.095682     0.024478     0.857654  Biso 1.000000     C
    C   1.0     0.095630     0.524306     0.857517  Biso 1.000000     C
    C   1.0     0.595673     0.024471     0.857651  Biso 1.000000     C
    C   1.0     0.595623     0.524313     0.857523  Biso 1.000000     C
    C   1.0     0.045747     0.010493     0.929716  Biso 1.000000     C
    C   1.0     0.045724     0.510412     0.929658  Biso 1.000000     C
    C   1.0     0.545740     0.010500     0.929723  Biso 1.000000     C
    C   1.0     0.545714     0.510407     0.929653  Biso 1.000000     C
    C   1.0     0.455512     0.013958     0.907141  Biso 1.000000     C
    C   1.0     0.455461     0.513775     0.906990  Biso 1.000000     C
    C   1.0     0.955503     0.013957     0.907140  Biso 1.000000     C
    C   1.0     0.955452     0.513777     0.906992  Biso 1.000000     C
    C   1.0     0.090158    -0.003615     0.023141  Biso 1.000000     C
    C   1.0     0.090182     0.496481     0.023230  Biso 1.000000     C
    C   1.0     0.590150    -0.003610     0.023146  Biso 1.000000     C
    C   1.0     0.590174     0.496481     0.023229  Biso 1.000000     C
    C   1.0     0.497938     0.189604     0.907588  Biso 1.000000     C
    C   1.0     0.497850     0.689421     0.907921  Biso 1.000000     C
    C   1.0     0.997932     0.189607     0.907589  Biso 1.000000     C
    C   1.0     0.997846     0.689422     0.907923  Biso 1.000000     C
    C   1.0     0.421467     0.265380     0.022631  Biso 1.000000     C
    C   1.0     0.421379     0.765200     0.022962  Biso 1.000000     C
    C   1.0     0.921461     0.265382     0.022633  Biso 1.000000     C
    C   1.0     0.921374     0.765200     0.022964  Biso 1.000000     C
    C   1.0     0.419015     0.204499     0.929840  Biso 1.000000     C
    C   1.0     0.418926     0.704322     0.930167  Biso 1.000000     C
    C   1.0     0.919008     0.204503     0.929839  Biso 1.000000     C
    C   1.0     0.918921     0.704321     0.930170  Biso 1.000000     C
    C   1.0     0.332884     0.154600     0.858168  Biso 1.000000     C
    C   1.0     0.332774     0.654458     0.858488  Biso 1.000000     C
    C   1.0     0.832880     0.154597     0.858176  Biso 1.000000     C
    C   1.0     0.832769     0.654462     0.858486  Biso 1.000000     C
    C   1.0     0.402700     0.092270     0.396987  Biso 1.000000     C
    C   1.0     0.402873     0.592471     0.397163  Biso 1.000000     C
    C   1.0     0.902690     0.092267     0.396985  Biso 1.000000     C
    C   1.0     0.902863     0.592469     0.397163  Biso 1.000000     C
    C   1.0     0.266940     0.089928     0.383232  Biso 1.000000     C
    C   1.0     0.267186     0.590232     0.383765  Biso 1.000000     C
    C   1.0     0.766932     0.089925     0.383235  Biso 1.000000     C
    C   1.0     0.767177     0.590231     0.383769  Biso 1.000000     C
    C   1.0     0.424516     0.352771     0.384484  Biso 1.000000     C
    C   1.0     0.424689     0.852727     0.384549  Biso 1.000000     C
    C   1.0     0.924503     0.352768     0.384477  Biso 1.000000     C
    C   1.0     0.924676     0.852722     0.384540  Biso 1.000000     C
    C   1.0     0.295525     0.357006     0.397802  Biso 1.000000     C
    C   1.0     0.295841     0.857186     0.398295  Biso 1.000000     C
    C   1.0     0.795512     0.357001     0.397795  Biso 1.000000     C
    C   1.0     0.795829     0.857183     0.398289  Biso 1.000000     C
    C   1.0     0.404364     0.475678     0.142515  Biso 1.000000     C
    C   1.0     0.404314     0.975519     0.142388  Biso 1.000000     C
    C   1.0     0.904356     0.475682     0.142520  Biso 1.000000     C
    C   1.0     0.904305     0.975513     0.142383  Biso 1.000000     C
    C   1.0     0.454277     0.489588     0.070392  Biso 1.000000     C
    C   1.0     0.454251     0.989491     0.070320  Biso 1.000000     C
    C   1.0     0.954266     0.489579     0.070385  Biso 1.000000     C
    C   1.0     0.954245     0.989501     0.070328  Biso 1.000000     C
    C   1.0     0.044538     0.486215     0.093051  Biso 1.000000     C
    C   1.0     0.044489     0.986038     0.092905  Biso 1.000000     C
    C   1.0     0.544531     0.486221     0.093056  Biso 1.000000     C
    C   1.0     0.544479     0.986034     0.092903  Biso 1.000000     C
    C   1.0     0.409819     0.503517     0.976817  Biso 1.000000     C
    C   1.0     0.409841     0.000000     0.976898  Biso 1.000000     C
    C   1.0     0.909808     0.503512     0.976814  Biso 1.000000     C
    C   1.0     0.909835     0.000000     0.976904  Biso 1.000000     C
    C   1.0     0.002161     0.310572     0.092105  Biso 1.000000     C
    C   1.0     0.002073     0.810389     0.092435  Biso 1.000000     C
    C   1.0     0.502150     0.310572     0.092099  Biso 1.000000     C
    C   1.0     0.502062     0.810385     0.092438  Biso 1.000000     C
    C   1.0     0.078632     0.234793     0.977063  Biso 1.000000     C
    C   1.0     0.078546     0.734614     0.977392  Biso 1.000000     C
    C   1.0     0.578621     0.234793     0.977058  Biso 1.000000     C
    C   1.0     0.578534     0.734609     0.977396  Biso 1.000000     C
    C   1.0     0.081086     0.295670     0.069859  Biso 1.000000     C
    C   1.0     0.080998     0.795493     0.070185  Biso 1.000000     C
    C   1.0     0.581074     0.295671     0.069852  Biso 1.000000     C
    C   1.0     0.580986     0.795487     0.070191  Biso 1.000000     C
    C   1.0     0.167237     0.345530     0.141548  Biso 1.000000     C
    C   1.0     0.167127     0.845391     0.141865  Biso 1.000000     C
    C   1.0     0.667226     0.345529     0.141544  Biso 1.000000     C
    C   1.0     0.667113     0.845395     0.141856  Biso 1.000000     C
    N   1.0     0.103284     0.338160     0.550113  Biso 1.000000     N
    N   1.0     0.103575     0.838364     0.550485  Biso 1.000000     N
    N   1.0     0.603278     0.338161     0.550119  Biso 1.000000     N
    N   1.0     0.603570     0.838365     0.550489  Biso 1.000000     N
    N   1.0     0.191988     0.339495     0.558941  Biso 1.000000     N
    N   1.0     0.192328     0.839772     0.559548  Biso 1.000000     N
    N   1.0     0.691982     0.339496     0.558945  Biso 1.000000     N
    N   1.0     0.692323     0.839771     0.559551  Biso 1.000000     N
    N   1.0     0.175975     0.453603     0.644670  Biso 1.000000     N
    N   1.0     0.176108     0.953863     0.644941  Biso 1.000000     N
    N   1.0     0.675970     0.453605     0.644674  Biso 1.000000     N
    N   1.0     0.676105     0.953863     0.644943  Biso 1.000000     N
    N   1.0     0.087260     0.189195     0.558351  Biso 1.000000     N
    N   1.0     0.087549     0.689309     0.558679  Biso 1.000000     N
    N   1.0     0.587252     0.189195     0.558356  Biso 1.000000     N
    N   1.0     0.587539     0.689310     0.558681  Biso 1.000000     N
    N   1.0     0.171448     0.186114     0.549251  Biso 1.000000     N
    N   1.0     0.171832     0.686370     0.549857  Biso 1.000000     N
    N   1.0     0.671440     0.186115     0.549255  Biso 1.000000     N
    N   1.0     0.671822     0.686369     0.549857  Biso 1.000000     N
    N   1.0     0.146412     0.117388     0.643600  Biso 1.000000     N
    N   1.0     0.146600     0.617375     0.643755  Biso 1.000000     N
    N   1.0     0.646407     0.117389     0.643607  Biso 1.000000     N
    N   1.0     0.646590     0.617376     0.643756  Biso 1.000000     N
    N   1.0     0.396418     0.161620     0.449574  Biso 1.000000     N
    N   1.0     0.396711     0.661824     0.449943  Biso 1.000000     N
    N   1.0     0.896409     0.161618     0.449574  Biso 1.000000     N
    N   1.0     0.896701     0.661822     0.449942  Biso 1.000000     N
    N   1.0     0.307662     0.160208     0.440492  Biso 1.000000     N
    N   1.0     0.308003     0.660484     0.441095  Biso 1.000000     N
    N   1.0     0.807653     0.160206     0.440494  Biso 1.000000     N
    N   1.0     0.807994     0.660483     0.441097  Biso 1.000000     N
    N   1.0     0.323894     0.046120     0.355106  Biso 1.000000     N
    N   1.0     0.324030     0.546378     0.355375  Biso 1.000000     N
    N   1.0     0.823885     0.046117     0.355106  Biso 1.000000     N
    N   1.0     0.824020     0.546376     0.355378  Biso 1.000000     N
    N   1.0     0.412450     0.310677     0.441387  Biso 1.000000     N
    N   1.0     0.412736     0.810792     0.441713  Biso 1.000000     N
    N   1.0     0.912438     0.310674     0.441381  Biso 1.000000     N
    N   1.0     0.912725     0.810789     0.441706  Biso 1.000000     N
    N   1.0     0.328161     0.313610     0.450187  Biso 1.000000     N
    N   1.0     0.328542     0.813866     0.450793  Biso 1.000000     N
    N   1.0     0.828148     0.313606     0.450181  Biso 1.000000     N
    N   1.0     0.828531     0.813863     0.450788  Biso 1.000000     N
    N   1.0     0.353407     0.382608     0.356301  Biso 1.000000     N
    N   1.0     0.353591     0.882597     0.356455  Biso 1.000000     N
    N   1.0     0.853393     0.382604     0.356294  Biso 1.000000     N
    N   1.0     0.853577     0.882592     0.356446  Biso 1.000000     N
    O   1.0     0.056020     0.037920     0.771953  Biso 1.000000     O
    O   1.0     0.055974     0.537756     0.771825  Biso 1.000000     O
    O   1.0     0.556014     0.037922     0.771956  Biso 1.000000     O
    O   1.0     0.555966     0.537756     0.771824  Biso 1.000000     O
    O   1.0     0.178563     0.024441     0.882876  Biso 1.000000     O
    O   1.0     0.178503     0.524216     0.882697  Biso 1.000000     O
    O   1.0     0.678554     0.024438     0.882877  Biso 1.000000     O
    O   1.0     0.678495     0.524220     0.882701  Biso 1.000000     O
    O   1.0     0.329685     0.098116     0.773152  Biso 1.000000     O
    O   1.0     0.329582     0.597932     0.773497  Biso 1.000000     O
    O   1.0     0.829680     0.098119     0.773152  Biso 1.000000     O
    O   1.0     0.829576     0.597933     0.773498  Biso 1.000000     O
    O   1.0     0.262571     0.167328     0.882782  Biso 1.000000     O
    O   1.0     0.262446     0.667250     0.882979  Biso 1.000000     O
    O   1.0     0.762566     0.167324     0.882791  Biso 1.000000     O
    O   1.0     0.762442     0.667251     0.882980  Biso 1.000000     O
    O   1.0     0.444017     0.462222     0.228206  Biso 1.000000     O
    O   1.0     0.443969     0.962055     0.228075  Biso 1.000000     O
    O   1.0     0.944007     0.462218     0.228202  Biso 1.000000     O
    O   1.0     0.943961     0.962056     0.228076  Biso 1.000000     O
    O   1.0     0.321495     0.475780     0.117344  Biso 1.000000     O
    O   1.0     0.321435     0.975557     0.117167  Biso 1.000000     O
    O   1.0     0.821486     0.475782     0.117347  Biso 1.000000     O
    O   1.0     0.821429     0.975561     0.117168  Biso 1.000000     O
    O   1.0     0.170425     0.402054     0.226539  Biso 1.000000     O
    O   1.0     0.170320     0.901872     0.226882  Biso 1.000000     O
    O   1.0     0.670414     0.402054     0.226534  Biso 1.000000     O
    O   1.0     0.670310     0.901869     0.226883  Biso 1.000000     O
    O   1.0     0.237568     0.332738     0.117065  Biso 1.000000     O
    O   1.0     0.237445     0.832664     0.117261  Biso 1.000000     O
    O   1.0     0.737556     0.332740     0.117057  Biso 1.000000     O
    O   1.0     0.737430     0.832665     0.117252  Biso 1.000000     O
   Zn   1.0     0.190233     0.064581     0.759381  Biso 1.000000    Zn
   Zn   1.0     0.190277     0.564334     0.759295  Biso 1.000000    Zn
   Zn   1.0     0.690230     0.064578     0.759385  Biso 1.000000    Zn
   Zn   1.0     0.690269     0.564339     0.759299  Biso 1.000000    Zn
   Zn   1.0     0.309741     0.435644     0.240753  Biso 1.000000    Zn
   Zn   1.0     0.309782     0.935404     0.240671  Biso 1.000000    Zn
   Zn   1.0     0.809729     0.435645     0.240753  Biso 1.000000    Zn
   Zn   1.0     0.809769     0.935402     0.240661  Biso 1.000000    Zn
   Zn   1.0    -0.000154     0.249901     0.499810  Biso 1.000000    Zn
   Zn   1.0     0.000153     0.750084     0.500264  Biso 1.000000    Zn
   Zn   1.0     0.499839     0.249903     0.499816  Biso 1.000000    Zn
   Zn   1.0     0.500146     0.750086     0.500270  Biso 1.000000    Zn
   Zn   1.0     0.249804     0.249822     0.499631  Biso 1.000000    Zn
   Zn   1.0     0.250183     0.750155     0.500410  Biso 1.000000    Zn
   Zn   1.0     0.749795     0.249821     0.499633  Biso 1.000000    Zn
   Zn   1.0     0.750175     0.750154     0.500411  Biso 1.000000    Zn
