#======================================================================

# CRYSTAL DATA

#----------------------------------------------------------------------

data_VESTA_phase_1


_pd_phase_name                         MOF
_cell_length_a                         16.20100
_cell_length_b                         21.51700
_cell_length_c                         18.87100
_cell_angle_alpha                      90.00000
_cell_angle_beta                       90.00900
_cell_angle_gamma                      90.00000
_symmetry_space_group_name_H-M         "P 1"
_symmetry_Int_Tables_number            1

loop_
_symmetry_equiv_pos_as_xyz
   "x, y, z"

loop_
   _atom_site_label
   _atom_site_occupancy
   _atom_site_fract_x
   _atom_site_fract_y
   _atom_site_fract_z
   _atom_site_adp_type
   _atom_site_B_iso_or_equiv
   _atom_site_type_symbol
    H   1.0     0.478700     0.480901     0.366932  Biso 1.000000     H
    H   1.0     0.478606     0.980992     0.367000  Biso 1.000000     H
    H   1.0     0.978713     0.480901     0.366933  Biso 1.000000     H
    H   1.0     0.978619     0.980992     0.367000  Biso 1.000000     H
    H   1.0     0.223950     0.483115     0.323722  Biso 1.000000     H
    H   1.0     0.223880     0.983023     0.323682  Biso 1.000000     H
    H   1.0     0.723963     0.483115     0.323722  Biso 1.000000     H
    H   1.0     0.723893     0.983023     0.323682  Biso 1.000000     H
    H   1.0     0.271326     0.019050     0.866953  Biso 1.000000     H
    H   1.0     0.271253     0.519160     0.866871  Biso 1.000000     H
    H   1.0     0.771339     0.019050     0.866952  Biso 1.000000     H
    H   1.0     0.771266     0.519161     0.866870  Biso 1.000000     H
    H   1.0     0.026028     0.016993     0.823674  Biso 1.000000     H
    H   1.0     0.025975     0.516910     0.823683  Biso 1.000000     H
    H   1.0     0.526041     0.016994     0.823672  Biso 1.000000     H
    H   1.0     0.525988     0.516909     0.823684  Biso 1.000000     H
    H   1.0     0.021249     0.230953     0.633061  Biso 1.000000     H
    H   1.0     0.021295     0.730883     0.633138  Biso 1.000000     H
    H   1.0     0.521262     0.230953     0.633061  Biso 1.000000     H
    H   1.0     0.521308     0.730883     0.633138  Biso 1.000000     H
    H   1.0     0.275975     0.233049     0.676384  Biso 1.000000     H
    H   1.0     0.276053     0.733051     0.676315  Biso 1.000000     H
    H   1.0     0.775988     0.233049     0.676383  Biso 1.000000     H
    H   1.0     0.776066     0.733051     0.676315  Biso 1.000000     H
    H   1.0     0.228652     0.269161     0.133183  Biso 1.000000     H
    H   1.0     0.228716     0.769096     0.133114  Biso 1.000000     H
    H   1.0     0.728665     0.269161     0.133182  Biso 1.000000     H
    H   1.0     0.728729     0.769096     0.133114  Biso 1.000000     H
    H   1.0     0.473923     0.266969     0.176342  Biso 1.000000     H
    H   1.0     0.474019     0.766979     0.176417  Biso 1.000000     H
    H   1.0     0.973936     0.266969     0.176341  Biso 1.000000     H
    H   1.0     0.974032     0.766978     0.176416  Biso 1.000000     H
    H   1.0     0.021339     0.019027     0.633046  Biso 1.000000     H
    H   1.0     0.021254     0.519123     0.633128  Biso 1.000000     H
    H   1.0     0.521352     0.019027     0.633046  Biso 1.000000     H
    H   1.0     0.521266     0.519123     0.633128  Biso 1.000000     H
    H   1.0     0.276067     0.016991     0.676356  Biso 1.000000     H
    H   1.0     0.276007     0.516900     0.676322  Biso 1.000000     H
    H   1.0     0.776080     0.016991     0.676355  Biso 1.000000     H
    H   1.0     0.776020     0.516900     0.676322  Biso 1.000000     H
    H   1.0     0.228701     0.480858     0.133181  Biso 1.000000     H
    H   1.0     0.228618     0.980969     0.133096  Biso 1.000000     H
    H   1.0     0.728714     0.480858     0.133180  Biso 1.000000     H
    H   1.0     0.728631     0.980969     0.133095  Biso 1.000000     H
    H   1.0     0.473979     0.483108     0.176369  Biso 1.000000     H
    H   1.0     0.473916     0.983023     0.176373  Biso 1.000000     H
    H   1.0     0.973992     0.483108     0.176368  Biso 1.000000     H
    H   1.0     0.973929     0.983023     0.176373  Biso 1.000000     H
    H   1.0     0.478651     0.269129     0.366920  Biso 1.000000     H
    H   1.0     0.478703     0.769066     0.366990  Biso 1.000000     H
    H   1.0     0.978664     0.269130     0.366919  Biso 1.000000     H
    H   1.0     0.978715     0.769066     0.366990  Biso 1.000000     H
    H   1.0     0.223896     0.266974     0.323730  Biso 1.000000     H
    H   1.0     0.223980     0.766969     0.323657  Biso 1.000000     H
    H   1.0     0.723910     0.266975     0.323728  Biso 1.000000     H
    H   1.0     0.723992     0.766968     0.323658  Biso 1.000000     H
    H   1.0     0.271235     0.230927     0.866941  Biso 1.000000     H
    H   1.0     0.271294     0.730853     0.866863  Biso 1.000000     H
    H   1.0     0.771247     0.230926     0.866940  Biso 1.000000     H
    H   1.0     0.771307     0.730853     0.866862  Biso 1.000000     H
    H   1.0     0.025931     0.233035     0.823633  Biso 1.000000     H
    H   1.0     0.026023     0.733054     0.823706  Biso 1.000000     H
    H   1.0     0.525944     0.233035     0.823633  Biso 1.000000     H
    H   1.0     0.526036     0.733053     0.823705  Biso 1.000000     H
    H   1.0     0.488560     0.375070     0.541681  Biso 1.000000     H
    H   1.0     0.488620     0.874945     0.541660  Biso 1.000000     H
    H   1.0     0.988573     0.375069     0.541681  Biso 1.000000     H
    H   1.0     0.988633     0.874946     0.541660  Biso 1.000000     H
    H   1.0     0.232833     0.374997     0.580712  Biso 1.000000     H
    H   1.0     0.232903     0.874954     0.580737  Biso 1.000000     H
    H   1.0     0.732846     0.374997     0.580712  Biso 1.000000     H
    H   1.0     0.732915     0.874955     0.580737  Biso 1.000000     H
    H   1.0     0.261400     0.125072     0.041593  Biso 1.000000     H
    H   1.0     0.261477     0.624955     0.041602  Biso 1.000000     H
    H   1.0     0.761413     0.125072     0.041593  Biso 1.000000     H
    H   1.0     0.761490     0.624955     0.041602  Biso 1.000000     H
    H   1.0     0.017106     0.125075     0.080745  Biso 1.000000     H
    H   1.0     0.017190     0.625016     0.080715  Biso 1.000000     H
    H   1.0     0.517119     0.125075     0.080745  Biso 1.000000     H
    H   1.0     0.517203     0.625016     0.080715  Biso 1.000000     H
    H   1.0     0.011329     0.125066     0.458384  Biso 1.000000     H
    H   1.0     0.011396     0.624954     0.458368  Biso 1.000000     H
    H   1.0     0.511342     0.125066     0.458384  Biso 1.000000     H
    H   1.0     0.511409     0.624954     0.458368  Biso 1.000000     H
    H   1.0     0.267047     0.125063     0.419307  Biso 1.000000     H
    H   1.0     0.267123     0.625024     0.419340  Biso 1.000000     H
    H   1.0     0.767060     0.125062     0.419307  Biso 1.000000     H
    H   1.0     0.767136     0.625024     0.419340  Biso 1.000000     H
    H   1.0     0.238478     0.375069     0.958447  Biso 1.000000     H
    H   1.0     0.238546     0.874941     0.958453  Biso 1.000000     H
    H   1.0     0.738490     0.375069     0.958447  Biso 1.000000     H
    H   1.0     0.738559     0.874941     0.958453  Biso 1.000000     H
    H   1.0     0.482763     0.375004     0.919335  Biso 1.000000     H
    H   1.0     0.482839     0.874941     0.919304  Biso 1.000000     H
    H   1.0     0.982777     0.375004     0.919335  Biso 1.000000     H
    H   1.0     0.982852     0.874941     0.919304  Biso 1.000000     H
    C   1.0     0.418110     0.494301     0.347608  Biso 1.000000     C
    C   1.0     0.418010     0.994348     0.347647  Biso 1.000000     C
    C   1.0     0.918122     0.494302     0.347609  Biso 1.000000     C
    C   1.0     0.918023     0.994348     0.347647  Biso 1.000000     C
    C   1.0     0.288918     0.495387     0.325017  Biso 1.000000     C
    C   1.0     0.288833     0.995338     0.324997  Biso 1.000000     C
    C   1.0     0.788931     0.495387     0.325017  Biso 1.000000     C
    C   1.0     0.788846     0.995338     0.324997  Biso 1.000000     C
    C   1.0     0.331919     0.005681     0.847622  Biso 1.000000     C
    C   1.0     0.331839     0.505742     0.847569  Biso 1.000000     C
    C   1.0     0.831932     0.005680     0.847622  Biso 1.000000     C
    C   1.0     0.831851     0.505742     0.847567  Biso 1.000000     C
    C   1.0     0.461088     0.004681     0.824984  Biso 1.000000     C
    C   1.0     0.461020     0.504641     0.824984  Biso 1.000000     C
    C   1.0     0.961101     0.004681     0.824984  Biso 1.000000     C
    C   1.0     0.961033     0.504641     0.824984  Biso 1.000000     C
    C   1.0     0.081839     0.244324     0.652413  Biso 1.000000     C
    C   1.0     0.081895     0.744272     0.652452  Biso 1.000000     C
    C   1.0     0.581852     0.244325     0.652413  Biso 1.000000     C
    C   1.0     0.581907     0.744272     0.652452  Biso 1.000000     C
    C   1.0     0.211016     0.245347     0.675067  Biso 1.000000     C
    C   1.0     0.211089     0.745336     0.675028  Biso 1.000000     C
    C   1.0     0.711029     0.245347     0.675066  Biso 1.000000     C
    C   1.0     0.711102     0.745336     0.675028  Biso 1.000000     C
    C   1.0     0.168057     0.255758     0.152479  Biso 1.000000     C
    C   1.0     0.168130     0.755711     0.152447  Biso 1.000000     C
    C   1.0     0.668071     0.255758     0.152479  Biso 1.000000     C
    C   1.0     0.668143     0.755711     0.152447  Biso 1.000000     C
    C   1.0     0.038874     0.254687     0.175052  Biso 1.000000     C
    C   1.0     0.038963     0.754680     0.175095  Biso 1.000000     C
    C   1.0     0.538887     0.254687     0.175052  Biso 1.000000     C
    C   1.0     0.538977     0.754681     0.175096  Biso 1.000000     C
    C   1.0     0.081935     0.005670     0.652397  Biso 1.000000     C
    C   1.0     0.081845     0.505720     0.652448  Biso 1.000000     C
    C   1.0     0.581948     0.005670     0.652397  Biso 1.000000     C
    C   1.0     0.581858     0.505720     0.652448  Biso 1.000000     C
    C   1.0     0.211114     0.004678     0.675044  Biso 1.000000     C
    C   1.0     0.211039     0.504630     0.675031  Biso 1.000000     C
    C   1.0     0.711126     0.004677     0.675044  Biso 1.000000     C
    C   1.0     0.711051     0.504630     0.675031  Biso 1.000000     C
    C   1.0     0.168115     0.494276     0.152485  Biso 1.000000     C
    C   1.0     0.168025     0.994338     0.152426  Biso 1.000000     C
    C   1.0     0.668128     0.494276     0.152484  Biso 1.000000     C
    C   1.0     0.668037     0.994338     0.152425  Biso 1.000000     C
    C   1.0     0.038934     0.495376     0.175069  Biso 1.000000     C
    C   1.0     0.038856     0.995336     0.175063  Biso 1.000000     C
    C   1.0     0.538947     0.495376     0.175069  Biso 1.000000     C
    C   1.0     0.538869     0.995336     0.175062  Biso 1.000000     C
    C   1.0     0.418052     0.255743     0.347602  Biso 1.000000     C
    C   1.0     0.418114     0.755694     0.347636  Biso 1.000000     C
    C   1.0     0.918065     0.255744     0.347601  Biso 1.000000     C
    C   1.0     0.918127     0.755694     0.347636  Biso 1.000000     C
    C   1.0     0.288859     0.254687     0.325019  Biso 1.000000     C
    C   1.0     0.288938     0.754670     0.324977  Biso 1.000000     C
    C   1.0     0.788872     0.254687     0.325018  Biso 1.000000     C
    C   1.0     0.788951     0.754670     0.324977  Biso 1.000000     C
    C   1.0     0.331821     0.244310     0.847607  Biso 1.000000     C
    C   1.0     0.331888     0.744257     0.847566  Biso 1.000000     C
    C   1.0     0.831834     0.244309     0.847606  Biso 1.000000     C
    C   1.0     0.831901     0.744258     0.847567  Biso 1.000000     C
    C   1.0     0.460987     0.245336     0.824955  Biso 1.000000     C
    C   1.0     0.461072     0.745334     0.824995  Biso 1.000000     C
    C   1.0     0.961000     0.245335     0.824955  Biso 1.000000     C
    C   1.0     0.961085     0.745335     0.824996  Biso 1.000000     C
    C   1.0     0.429008     0.375053     0.568175  Biso 1.000000     C
    C   1.0     0.429075     0.874946     0.568164  Biso 1.000000     C
    C   1.0     0.929021     0.375052     0.568175  Biso 1.000000     C
    C   1.0     0.929088     0.874947     0.568164  Biso 1.000000     C
    C   1.0     0.299225     0.375016     0.588393  Biso 1.000000     C
    C   1.0     0.299297     0.874948     0.588404  Biso 1.000000     C
    C   1.0     0.799238     0.375016     0.588393  Biso 1.000000     C
    C   1.0     0.799309     0.874949     0.588404  Biso 1.000000     C
    C   1.0     0.320943     0.125073     0.068117  Biso 1.000000     C
    C   1.0     0.321025     0.624969     0.068117  Biso 1.000000     C
    C   1.0     0.820956     0.125073     0.068117  Biso 1.000000     C
    C   1.0     0.821038     0.624969     0.068117  Biso 1.000000     C
    C   1.0     0.450725     0.125076     0.088392  Biso 1.000000     C
    C   1.0     0.450811     0.625001     0.088374  Biso 1.000000     C
    C   1.0     0.950737     0.125075     0.088392  Biso 1.000000     C
    C   1.0     0.950824     0.625001     0.088374  Biso 1.000000     C
    C   1.0     0.070875     0.125066     0.431880  Biso 1.000000     C
    C   1.0     0.070948     0.624971     0.431875  Biso 1.000000     C
    C   1.0     0.570887     0.125066     0.431880  Biso 1.000000     C
    C   1.0     0.570961     0.624971     0.431875  Biso 1.000000     C
    C   1.0     0.200653     0.125067     0.411640  Biso 1.000000     C
    C   1.0     0.200732     0.625005     0.411658  Biso 1.000000     C
    C   1.0     0.700665     0.125067     0.411640  Biso 1.000000     C
    C   1.0     0.700745     0.625005     0.411658  Biso 1.000000     C
    C   1.0     0.178929     0.375052     0.931932  Biso 1.000000     C
    C   1.0     0.179003     0.874942     0.931930  Biso 1.000000     C
    C   1.0     0.678942     0.375052     0.931932  Biso 1.000000     C
    C   1.0     0.679016     0.874942     0.931930  Biso 1.000000     C
    C   1.0     0.049143     0.375020     0.911676  Biso 1.000000     C
    C   1.0     0.049221     0.874940     0.911656  Biso 1.000000     C
    C   1.0     0.549156     0.375020     0.911675  Biso 1.000000     C
    C   1.0     0.549234     0.874940     0.911656  Biso 1.000000     C
    N   1.0     0.347521     0.461574     0.359307  Biso 1.000000     N
    N   1.0     0.347456     0.961573     0.359325  Biso 1.000000     N
    N   1.0     0.847534     0.461574     0.359307  Biso 1.000000     N
    N   1.0     0.847469     0.961573     0.359325  Biso 1.000000     N
    N   1.0     0.403895     0.045067     0.308756  Biso 1.000000     N
    N   1.0     0.404025     0.545028     0.308746  Biso 1.000000     N
    N   1.0     0.903908     0.045067     0.308756  Biso 1.000000     N
    N   1.0     0.904038     0.545028     0.308746  Biso 1.000000     N
    N   1.0     0.320430     0.045542     0.294087  Biso 1.000000     N
    N   1.0     0.320553     0.545559     0.294111  Biso 1.000000     N
    N   1.0     0.820443     0.045542     0.294086  Biso 1.000000     N
    N   1.0     0.820566     0.545558     0.294110  Biso 1.000000     N
    N   1.0     0.402476     0.038459     0.859294  Biso 1.000000     N
    N   1.0     0.402432     0.538472     0.859252  Biso 1.000000     N
    N   1.0     0.902489     0.038459     0.859293  Biso 1.000000     N
    N   1.0     0.902445     0.538473     0.859251  Biso 1.000000     N
    N   1.0     0.345906     0.454999     0.808734  Biso 1.000000     N
    N   1.0     0.346021     0.954952     0.808747  Biso 1.000000     N
    N   1.0     0.845919     0.454999     0.808734  Biso 1.000000     N
    N   1.0     0.846034     0.954952     0.808746  Biso 1.000000     N
    N   1.0     0.429375     0.454456     0.794108  Biso 1.000000     N
    N   1.0     0.429483     0.954471     0.794086  Biso 1.000000     N
    N   1.0     0.929388     0.454455     0.794109  Biso 1.000000     N
    N   1.0     0.929496     0.954472     0.794085  Biso 1.000000     N
    N   1.0     0.152409     0.211567     0.640738  Biso 1.000000     N
    N   1.0     0.152470     0.711530     0.640750  Biso 1.000000     N
    N   1.0     0.652422     0.211567     0.640738  Biso 1.000000     N
    N   1.0     0.652483     0.711530     0.640750  Biso 1.000000     N
    N   1.0     0.095937     0.295034     0.691301  Biso 1.000000     N
    N   1.0     0.096004     0.794999     0.691306  Biso 1.000000     N
    N   1.0     0.595950     0.295034     0.691301  Biso 1.000000     N
    N   1.0     0.596016     0.794999     0.691306  Biso 1.000000     N
    N   1.0     0.179401     0.295524     0.705978  Biso 1.000000     N
    N   1.0     0.179478     0.795519     0.705931  Biso 1.000000     N
    N   1.0     0.679414     0.295524     0.705979  Biso 1.000000     N
    N   1.0     0.679490     0.795519     0.705931  Biso 1.000000     N
    N   1.0     0.097479     0.288505     0.140789  Biso 1.000000     N
    N   1.0     0.097559     0.788475     0.140788  Biso 1.000000     N
    N   1.0     0.597492     0.288505     0.140789  Biso 1.000000     N
    N   1.0     0.597571     0.788475     0.140787  Biso 1.000000     N
    N   1.0     0.153964     0.205022     0.191318  Biso 1.000000     N
    N   1.0     0.154045     0.704988     0.191311  Biso 1.000000     N
    N   1.0     0.653978     0.205022     0.191318  Biso 1.000000     N
    N   1.0     0.654058     0.704987     0.191310  Biso 1.000000     N
    N   1.0     0.070495     0.204496     0.205938  Biso 1.000000     N
    N   1.0     0.070586     0.704491     0.205981  Biso 1.000000     N
    N   1.0     0.570508     0.204496     0.205937  Biso 1.000000     N
    N   1.0     0.570599     0.704490     0.205980  Biso 1.000000     N
    N   1.0     0.152490     0.038444     0.640718  Biso 1.000000     N
    N   1.0     0.152434     0.538446     0.640746  Biso 1.000000     N
    N   1.0     0.652503     0.038444     0.640718  Biso 1.000000     N
    N   1.0     0.652447     0.538446     0.640746  Biso 1.000000     N
    N   1.0     0.095931     0.454992     0.691308  Biso 1.000000     N
    N   1.0     0.096050     0.954952     0.691291  Biso 1.000000     N
    N   1.0     0.595943     0.454992     0.691308  Biso 1.000000     N
    N   1.0     0.596062     0.954952     0.691291  Biso 1.000000     N
    N   1.0     0.179404     0.454459     0.705937  Biso 1.000000     N
    N   1.0     0.179516     0.954477     0.705960  Biso 1.000000     N
    N   1.0     0.679417     0.454458     0.705937  Biso 1.000000     N
    N   1.0     0.679528     0.954477     0.705960  Biso 1.000000     N
    N   1.0     0.097523     0.461545     0.140802  Biso 1.000000     N
    N   1.0     0.097468     0.961559     0.140754  Biso 1.000000     N
    N   1.0     0.597536     0.461545     0.140802  Biso 1.000000     N
    N   1.0     0.597481     0.961559     0.140753  Biso 1.000000     N
    N   1.0     0.153921     0.045067     0.191300  Biso 1.000000     N
    N   1.0     0.154048     0.545019     0.191320  Biso 1.000000     N
    N   1.0     0.653934     0.045067     0.191300  Biso 1.000000     N
    N   1.0     0.654061     0.545019     0.191320  Biso 1.000000     N
    N   1.0     0.070459     0.045547     0.205960  Biso 1.000000     N
    N   1.0     0.070580     0.545561     0.205946  Biso 1.000000     N
    N   1.0     0.570472     0.045546     0.205961  Biso 1.000000     N
    N   1.0     0.570593     0.545561     0.205946  Biso 1.000000     N
    N   1.0     0.347479     0.288489     0.359301  Biso 1.000000     N
    N   1.0     0.347543     0.788451     0.359306  Biso 1.000000     N
    N   1.0     0.847492     0.288489     0.359301  Biso 1.000000     N
    N   1.0     0.847556     0.788451     0.359306  Biso 1.000000     N
    N   1.0     0.403942     0.205019     0.308743  Biso 1.000000     N
    N   1.0     0.404018     0.704984     0.308750  Biso 1.000000     N
    N   1.0     0.903954     0.205018     0.308744  Biso 1.000000     N
    N   1.0     0.904031     0.704984     0.308750  Biso 1.000000     N
    N   1.0     0.320469     0.204504     0.294113  Biso 1.000000     N
    N   1.0     0.320556     0.704493     0.294069  Biso 1.000000     N
    N   1.0     0.820481     0.204503     0.294115  Biso 1.000000     N
    N   1.0     0.820569     0.704493     0.294068  Biso 1.000000     N
    N   1.0     0.402391     0.211544     0.859266  Biso 1.000000     N
    N   1.0     0.402468     0.711514     0.859258  Biso 1.000000     N
    N   1.0     0.902404     0.211544     0.859265  Biso 1.000000     N
    N   1.0     0.902481     0.711514     0.859258  Biso 1.000000     N
    N   1.0     0.345908     0.295032     0.808741  Biso 1.000000     N
    N   1.0     0.345978     0.794997     0.808731  Biso 1.000000     N
    N   1.0     0.845921     0.295032     0.808741  Biso 1.000000     N
    N   1.0     0.845991     0.794996     0.808731  Biso 1.000000     N
    N   1.0     0.429367     0.295526     0.794070  Biso 1.000000     N
    N   1.0     0.429449     0.795526     0.794114  Biso 1.000000     N
    N   1.0     0.929380     0.295526     0.794070  Biso 1.000000     N
    N   1.0     0.929461     0.795526     0.794113  Biso 1.000000     N
    N   1.0     0.419758     0.375041     0.638409  Biso 1.000000     N
    N   1.0     0.419844     0.874940     0.638402  Biso 1.000000     N
    N   1.0     0.919771     0.375041     0.638409  Biso 1.000000     N
    N   1.0     0.919856     0.874940     0.638401  Biso 1.000000     N
    N   1.0     0.335908     0.375019     0.651430  Biso 1.000000     N
    N   1.0     0.335996     0.874941     0.651434  Biso 1.000000     N
    N   1.0     0.835920     0.375020     0.651430  Biso 1.000000     N
    N   1.0     0.836009     0.874941     0.651434  Biso 1.000000     N
    N   1.0     0.354788     0.375039     0.534344  Biso 1.000000     N
    N   1.0     0.354846     0.874949     0.534344  Biso 1.000000     N
    N   1.0     0.854801     0.375039     0.534344  Biso 1.000000     N
    N   1.0     0.854858     0.874949     0.534344  Biso 1.000000     N
    N   1.0     0.330173     0.125076     0.138358  Biso 1.000000     N
    N   1.0     0.330272     0.624982     0.138355  Biso 1.000000     N
    N   1.0     0.830186     0.125076     0.138358  Biso 1.000000     N
    N   1.0     0.830285     0.624982     0.138355  Biso 1.000000     N
    N   1.0     0.414022     0.125077     0.151412  Biso 1.000000     N
    N   1.0     0.414123     0.625000     0.151400  Biso 1.000000     N
    N   1.0     0.914035     0.125077     0.151412  Biso 1.000000     N
    N   1.0     0.914136     0.625000     0.151400  Biso 1.000000     N
    N   1.0     0.395174     0.125074     0.034319  Biso 1.000000     N
    N   1.0     0.395248     0.624980     0.034310  Biso 1.000000     N
    N   1.0     0.895187     0.125074     0.034319  Biso 1.000000     N
    N   1.0     0.895262     0.624980     0.034310  Biso 1.000000     N
    N   1.0     0.080106     0.125074     0.361643  Biso 1.000000     N
    N   1.0     0.080199     0.624981     0.361641  Biso 1.000000     N
    N   1.0     0.580118     0.125074     0.361642  Biso 1.000000     N
    N   1.0     0.580212     0.624982     0.361641  Biso 1.000000     N
    N   1.0     0.163953     0.125075     0.348610  Biso 1.000000     N
    N   1.0     0.164050     0.625002     0.348620  Biso 1.000000     N
    N   1.0     0.663966     0.125075     0.348610  Biso 1.000000     N
    N   1.0     0.664063     0.625001     0.348620  Biso 1.000000     N
    N   1.0     0.145104     0.125064     0.465700  Biso 1.000000     N
    N   1.0     0.145168     0.624984     0.465706  Biso 1.000000     N
    N   1.0     0.645117     0.125064     0.465700  Biso 1.000000     N
    N   1.0     0.645181     0.624984     0.465706  Biso 1.000000     N
    N   1.0     0.169682     0.375035     0.861694  Biso 1.000000     N
    N   1.0     0.169771     0.874944     0.861690  Biso 1.000000     N
    N   1.0     0.669695     0.375035     0.861694  Biso 1.000000     N
    N   1.0     0.669784     0.874944     0.861690  Biso 1.000000     N
    N   1.0     0.085831     0.375017     0.848650  Biso 1.000000     N
    N   1.0     0.085923     0.874943     0.848636  Biso 1.000000     N
    N   1.0     0.585844     0.375017     0.848649  Biso 1.000000     N
    N   1.0     0.585936     0.874942     0.848636  Biso 1.000000     N
    N   1.0     0.104706     0.375045     0.965740  Biso 1.000000     N
    N   1.0     0.104772     0.874937     0.965729  Biso 1.000000     N
    N   1.0     0.604719     0.375045     0.965740  Biso 1.000000     N
    N   1.0     0.604785     0.874937     0.965729  Biso 1.000000     N
   Cd   1.0     0.311967     0.375036     0.420654  Biso 1.000000    Cd
   Cd   1.0     0.311994     0.874995     0.420659  Biso 1.000000    Cd
   Cd   1.0     0.811979     0.375036     0.420654  Biso 1.000000    Cd
   Cd   1.0     0.812007     0.874995     0.420659  Biso 1.000000    Cd
   Cd   1.0     0.437987     0.125020     0.920633  Biso 1.000000    Cd
   Cd   1.0     0.438037     0.624986     0.920620  Biso 1.000000    Cd
   Cd   1.0     0.938000     0.125020     0.920633  Biso 1.000000    Cd
   Cd   1.0     0.938050     0.624986     0.920619  Biso 1.000000    Cd
   Cd   1.0     0.187954     0.125022     0.579385  Biso 1.000000    Cd
   Cd   1.0     0.187987     0.624984     0.579397  Biso 1.000000    Cd
   Cd   1.0     0.687967     0.125022     0.579385  Biso 1.000000    Cd
   Cd   1.0     0.687999     0.624984     0.579397  Biso 1.000000    Cd
   Cd   1.0     0.061916     0.375035     0.079429  Biso 1.000000    Cd
   Cd   1.0     0.061961     0.874995     0.079415  Biso 1.000000    Cd
   Cd   1.0     0.561929     0.375034     0.079429  Biso 1.000000    Cd
   Cd   1.0     0.561974     0.874995     0.079415  Biso 1.000000    Cd
   Cd   1.0     0.490406     0.125035     0.262935  Biso 1.000000    Cd
   Cd   1.0     0.490507     0.625013     0.262937  Biso 1.000000    Cd
   Cd   1.0     0.990419     0.125035     0.262936  Biso 1.000000    Cd
   Cd   1.0     0.990520     0.625013     0.262938  Biso 1.000000    Cd
   Cd   1.0     0.259430     0.375008     0.762968  Biso 1.000000    Cd
   Cd   1.0     0.259521     0.874981     0.762959  Biso 1.000000    Cd
   Cd   1.0     0.759443     0.375008     0.762968  Biso 1.000000    Cd
   Cd   1.0     0.759534     0.874981     0.762959  Biso 1.000000    Cd
   Cd   1.0     0.009448     0.375005     0.737114  Biso 1.000000    Cd
   Cd   1.0     0.009538     0.874984     0.737112  Biso 1.000000    Cd
   Cd   1.0     0.509461     0.375005     0.737113  Biso 1.000000    Cd
   Cd   1.0     0.509551     0.874984     0.737112  Biso 1.000000    Cd
   Cd   1.0     0.240424     0.125038     0.237088  Biso 1.000000    Cd
   Cd   1.0     0.240525     0.625009     0.237082  Biso 1.000000    Cd
   Cd   1.0     0.740437     0.125038     0.237088  Biso 1.000000    Cd
   Cd   1.0     0.740538     0.625009     0.237081  Biso 1.000000    Cd
    I   1.0     0.138017     0.375032     0.423166  Biso 1.000000     I
    I   1.0     0.138045     0.874970     0.423179  Biso 1.000000     I
    I   1.0     0.638029     0.375032     0.423165  Biso 1.000000     I
    I   1.0     0.638057     0.874970     0.423178  Biso 1.000000     I
    I   1.0     0.111927     0.125045     0.923012  Biso 1.000000     I
    I   1.0     0.111977     0.624990     0.922994  Biso 1.000000     I
    I   1.0     0.611940     0.125045     0.923012  Biso 1.000000     I
    I   1.0     0.611990     0.624990     0.922994  Biso 1.000000     I
    I   1.0     0.361904     0.125046     0.576865  Biso 1.000000     I
    I   1.0     0.361937     0.624987     0.576883  Biso 1.000000     I
    I   1.0     0.861917     0.125046     0.576865  Biso 1.000000     I
    I   1.0     0.861949     0.624987     0.576883  Biso 1.000000     I
    I   1.0     0.387977     0.375029     0.077052  Biso 1.000000     I
    I   1.0     0.388020     0.874971     0.077034  Biso 1.000000     I
    I   1.0     0.887990     0.375030     0.077052  Biso 1.000000     I
    I   1.0     0.888034     0.874971     0.077033  Biso 1.000000     I
