#======================================================================

# CRYSTAL DATA

#----------------------------------------------------------------------

data_VESTA_phase_1


_pd_phase_name                         MOF
_cell_length_a                         15.13300
_cell_length_b                         17.67800
_cell_length_c                         17.67800
_cell_angle_alpha                      90.00000
_cell_angle_beta                       90.00000
_cell_angle_gamma                      90.00000
_symmetry_space_group_name_H-M         "P 1"
_symmetry_Int_Tables_number            1

loop_
_symmetry_equiv_pos_as_xyz
   "x, y, z"

loop_
   _atom_site_label
   _atom_site_occupancy
   _atom_site_fract_x
   _atom_site_fract_y
   _atom_site_fract_z
   _atom_site_adp_type
   _atom_site_B_iso_or_equiv
   _atom_site_type_symbol
    H   1.0     0.784884     0.875042     0.623558  Biso 1.000000     H
    H   1.0     0.822601     0.891882     0.487503  Biso 1.000000     H
    H   1.0     0.083773     0.906299     0.546970  Biso 1.000000     H
    H   1.0     0.044369     0.886103     0.682369  Biso 1.000000     H
    H   1.0     0.096801     0.847960     0.432858  Biso 1.000000     H
    H   1.0     0.125917     0.856744     0.294540  Biso 1.000000     H
    H   1.0     0.904056     0.967626     0.256394  Biso 1.000000     H
    H   1.0     0.866898     0.968218     0.393490  Biso 1.000000     H
    H   1.0     0.785366     0.905037     0.019630  Biso 1.000000     H
    H   1.0     0.746330     0.767206     0.000000  Biso 1.000000     H
    H   1.0     0.855844     0.741918     0.021127  Biso 1.000000     H
    H   1.0     0.782913     0.784991     0.088537  Biso 1.000000     H
    H   1.0     0.786120     0.134986     0.385727  Biso 1.000000     H
    H   1.0     0.823611     0.118062     0.521818  Biso 1.000000     H
    H   1.0     0.084874     0.103620     0.462671  Biso 1.000000     H
    H   1.0     0.045695     0.123887     0.327228  Biso 1.000000     H
    H   1.0     0.097732     0.161896     0.576801  Biso 1.000000     H
    H   1.0     0.126574     0.153103     0.715159  Biso 1.000000     H
    H   1.0     0.904578     0.042319     0.752978  Biso 1.000000     H
    H   1.0     0.867694     0.041722     0.615821  Biso 1.000000     H
    H   1.0     0.785695     0.104313     0.989669  Biso 1.000000     H
    H   1.0     0.747617     0.242010     0.006522  Biso 1.000000     H
    H   1.0     0.855642     0.267594     0.988544  Biso 1.000000     H
    H   1.0     0.783026     0.224470     0.920912  Biso 1.000000     H
    H   1.0     0.226178     0.624256     0.135415  Biso 1.000000     H
    H   1.0     0.188659     0.488166     0.118651  Biso 1.000000     H
    H   1.0     0.927485     0.547402     0.103373  Biso 1.000000     H
    H   1.0     0.966674     0.682863     0.123534  Biso 1.000000     H
    H   1.0     0.914558     0.432921     0.161821  Biso 1.000000     H
    H   1.0     0.886343     0.294418     0.153240  Biso 1.000000     H
    H   1.0     0.108842     0.257124     0.043100  Biso 1.000000     H
    H   1.0     0.145059     0.394409     0.042182  Biso 1.000000     H
    H   1.0     0.227392     0.019920     0.103867  Biso 1.000000     H
    H   1.0     0.265436     0.000000     0.240790  Biso 1.000000     H
    H   1.0     0.157905     0.019990     0.267319  Biso 1.000000     H
    H   1.0     0.230416     0.087850     0.224454  Biso 1.000000     H
    H   1.0     0.226248     0.386061     0.873960  Biso 1.000000     H
    H   1.0     0.188359     0.522077     0.890685  Biso 1.000000     H
    H   1.0     0.927333     0.462303     0.905884  Biso 1.000000     H
    H   1.0     0.966897     0.326925     0.885755  Biso 1.000000     H
    H   1.0     0.913966     0.576694     0.847630  Biso 1.000000     H
    H   1.0     0.885226     0.715120     0.856298  Biso 1.000000     H
    H   1.0     0.107750     0.753031     0.966171  Biso 1.000000     H
    H   1.0     0.144502     0.615862     0.967002  Biso 1.000000     H
    H   1.0     0.225507     0.990392     0.905992  Biso 1.000000     H
    H   1.0     0.266409     0.006762     0.769157  Biso 1.000000     H
    H   1.0     0.156635     0.990034     0.742351  Biso 1.000000     H
    H   1.0     0.228986     0.922225     0.785510  Biso 1.000000     H
    H   1.0     0.277858     0.875191     0.385680  Biso 1.000000     H
    H   1.0     0.315299     0.891886     0.521810  Biso 1.000000     H
    H   1.0     0.591276     0.906398     0.462771  Biso 1.000000     H
    H   1.0     0.552155     0.886356     0.327281  Biso 1.000000     H
    H   1.0     0.604009     0.847812     0.576823  Biso 1.000000     H
    H   1.0     0.632808     0.856406     0.715205  Biso 1.000000     H
    H   1.0     0.396242     0.967350     0.753102  Biso 1.000000     H
    H   1.0     0.359404     0.968152     0.615929  Biso 1.000000     H
    H   1.0     0.277154     0.904273     0.989643  Biso 1.000000     H
    H   1.0     0.240020     0.767387     0.006418  Biso 1.000000     H
    H   1.0     0.348095     0.741307     0.988041  Biso 1.000000     H
    H   1.0     0.274949     0.784274     0.920743  Biso 1.000000     H
    H   1.0     0.278414     0.134789     0.623552  Biso 1.000000     H
    H   1.0     0.316150     0.118052     0.487488  Biso 1.000000     H
    H   1.0     0.592014     0.103658     0.546967  Biso 1.000000     H
    H   1.0     0.552586     0.123731     0.682381  Biso 1.000000     H
    H   1.0     0.605050     0.162106     0.432950  Biso 1.000000     H
    H   1.0     0.634202     0.153510     0.294624  Biso 1.000000     H
    H   1.0     0.397699     0.042612     0.256298  Biso 1.000000     H
    H   1.0     0.360498     0.041848     0.393384  Biso 1.000000     H
    H   1.0     0.279049     0.105211     0.019525  Biso 1.000000     H
    H   1.0     0.239623     0.241948     0.000000  Biso 1.000000     H
    H   1.0     0.349107     0.268454     0.021480  Biso 1.000000     H
    H   1.0     0.276347     0.225038     0.088808  Biso 1.000000     H
    H   1.0     0.732974     0.623937     0.873858  Biso 1.000000     H
    H   1.0     0.695518     0.487836     0.890635  Biso 1.000000     H
    H   1.0     0.419654     0.547016     0.906201  Biso 1.000000     H
    H   1.0     0.458777     0.682483     0.885989  Biso 1.000000     H
    H   1.0     0.406610     0.432527     0.847914  Biso 1.000000     H
    H   1.0     0.378458     0.294015     0.856576  Biso 1.000000     H
    H   1.0     0.616009     0.256779     0.966158  Biso 1.000000     H
    H   1.0     0.652147     0.394076     0.967056  Biso 1.000000     H
    H   1.0     0.734100     0.019481     0.905784  Biso 1.000000     H
    H   1.0     0.772397     0.000000     0.768900  Biso 1.000000     H
    H   1.0     0.664889     0.019651     0.742252  Biso 1.000000     H
    H   1.0     0.737279     0.087522     0.785254  Biso 1.000000     H
    H   1.0     0.734278     0.386428     0.135387  Biso 1.000000     H
    H   1.0     0.696418     0.522443     0.118644  Biso 1.000000     H
    H   1.0     0.420665     0.462720     0.103648  Biso 1.000000     H
    H   1.0     0.460204     0.327350     0.123812  Biso 1.000000     H
    H   1.0     0.407275     0.577053     0.161742  Biso 1.000000     H
    H   1.0     0.378443     0.715455     0.153032  Biso 1.000000     H
    H   1.0     0.615698     0.753460     0.043249  Biso 1.000000     H
    H   1.0     0.652531     0.616312     0.042438  Biso 1.000000     H
    H   1.0     0.733404     0.990779     0.103559  Biso 1.000000     H
    H   1.0     0.774236     0.007186     0.240388  Biso 1.000000     H
    H   1.0     0.664451     0.990470     0.267178  Biso 1.000000     H
    H   1.0     0.736812     0.922642     0.224063  Biso 1.000000     H
    C   1.0     0.919762     0.878627     0.660972  Biso 1.000000     C
    C   1.0     0.853342     0.881749     0.605804  Biso 1.000000     C
    C   1.0     0.874787     0.892155     0.530029  Biso 1.000000     C
    C   1.0     0.963402     0.899962     0.507111  Biso 1.000000     C
    C   1.0     0.014833     0.898284     0.563071  Biso 1.000000     C
    C   1.0     0.000000     0.887551     0.638867  Biso 1.000000     C
    C   1.0     0.985458     0.906720     0.426009  Biso 1.000000     C
    C   1.0     0.049498     0.876597     0.396257  Biso 1.000000     C
    C   1.0     0.065701     0.880207     0.319021  Biso 1.000000     C
    C   1.0     0.948188     0.942215     0.297865  Biso 1.000000     C
    C   1.0     0.927499     0.941115     0.374348  Biso 1.000000     C
    C   1.0     0.896768     0.866378     0.742955  Biso 1.000000     C
    C   1.0     0.836028     0.862682     0.004523  Biso 1.000000     C
    C   1.0     0.919566     0.881248     0.049460  Biso 1.000000     C
    C   1.0     0.803302     0.784164     0.028967  Biso 1.000000     C
    C   1.0     0.921053     0.131394     0.348477  Biso 1.000000     C
    C   1.0     0.854544     0.128244     0.403562  Biso 1.000000     C
    C   1.0     0.875863     0.117804     0.479353  Biso 1.000000     C
    C   1.0     0.964440     0.109969     0.502361  Biso 1.000000     C
    C   1.0     0.015966     0.111661     0.446485  Biso 1.000000     C
    C   1.0     0.000000     0.122425     0.370669  Biso 1.000000     C
    C   1.0     0.986346     0.103186     0.583483  Biso 1.000000     C
    C   1.0     0.050351     0.133271     0.613335  Biso 1.000000     C
    C   1.0     0.066393     0.129670     0.690591  Biso 1.000000     C
    C   1.0     0.948799     0.067710     0.711564  Biso 1.000000     C
    C   1.0     0.928271     0.068799     0.635053  Biso 1.000000     C
    C   1.0     0.898150     0.143664     0.266487  Biso 1.000000     C
    C   1.0     0.836186     0.146778     0.000000  Biso 1.000000     C
    C   1.0     0.919833     0.128530     0.959973  Biso 1.000000     C
    C   1.0     0.803250     0.225244     0.980522  Biso 1.000000     C
    C   1.0     0.091297     0.661563     0.131421  Biso 1.000000     C
    C   1.0     0.157772     0.606438     0.128523  Biso 1.000000     C
    C   1.0     0.136438     0.530653     0.118168  Biso 1.000000     C
    C   1.0     0.047884     0.507664     0.110124  Biso 1.000000     C
    C   1.0     0.996378     0.563569     0.111566  Biso 1.000000     C
    C   1.0     0.003016     0.639408     0.122265  Biso 1.000000     C
    C   1.0     0.026149     0.426497     0.103405  Biso 1.000000     C
    C   1.0     0.962183     0.396471     0.133381  Biso 1.000000     C
    C   1.0     0.946503     0.319142     0.129933  Biso 1.000000     C
    C   1.0     0.064363     0.298452     0.068303  Biso 1.000000     C
    C   1.0     0.084517     0.375035     0.069214  Biso 1.000000     C
    C   1.0     0.114413     0.743508     0.143607  Biso 1.000000     C
    C   1.0     0.177001     0.004476     0.146323  Biso 1.000000     C
    C   1.0     0.093329     0.049533     0.128631  Biso 1.000000     C
    C   1.0     0.210175     0.028238     0.224899  Biso 1.000000     C
    C   1.0     0.091454     0.348487     0.877918  Biso 1.000000     C
    C   1.0     0.157786     0.403741     0.880821  Biso 1.000000     C
    C   1.0     0.136245     0.479492     0.891157  Biso 1.000000     C
    C   1.0     0.047624     0.502320     0.899172  Biso 1.000000     C
    C   1.0     0.996273     0.446280     0.897712  Biso 1.000000     C
    C   1.0     0.003115     0.370486     0.887029  Biso 1.000000     C
    C   1.0     0.025621     0.583440     0.905912  Biso 1.000000     C
    C   1.0     0.961500     0.613268     0.876025  Biso 1.000000     C
    C   1.0     0.945520     0.690554     0.879524  Biso 1.000000     C
    C   1.0     0.063384     0.711591     0.941007  Biso 1.000000     C
    C   1.0     0.083841     0.635064     0.940044  Biso 1.000000     C
    C   1.0     0.114688     0.266559     0.865767  Biso 1.000000     C
    C   1.0     0.175244     0.000000     0.863368  Biso 1.000000     C
    C   1.0     0.091609     0.960549     0.880927  Biso 1.000000     C
    C   1.0     0.208741     0.981833     0.784928  Biso 1.000000     C
    C   1.0     0.412805     0.878825     0.348470  Biso 1.000000     C
    C   1.0     0.346276     0.881896     0.403543  Biso 1.000000     C
    C   1.0     0.367566     0.892209     0.479358  Biso 1.000000     C
    C   1.0     0.456132     0.899994     0.502406  Biso 1.000000     C
    C   1.0     0.522373     0.898392     0.446547  Biso 1.000000     C
    C   1.0     0.501090     0.887754     0.370705  Biso 1.000000     C
    C   1.0     0.478004     0.906635     0.583547  Biso 1.000000     C
    C   1.0     0.556650     0.876435     0.613381  Biso 1.000000     C
    C   1.0     0.572668     0.879926     0.690646  Biso 1.000000     C
    C   1.0     0.440444     0.941976     0.711663  Biso 1.000000     C
    C   1.0     0.419944     0.941001     0.635145  Biso 1.000000     C
    C   1.0     0.389927     0.866681     0.266449  Biso 1.000000     C
    C   1.0     0.327898     0.862011     0.000000  Biso 1.000000     C
    C   1.0     0.411477     0.880721     0.959959  Biso 1.000000     C
    C   1.0     0.295406     0.783436     0.980297  Biso 1.000000     C
    C   1.0     0.413290     0.131202     0.660972  Biso 1.000000     C
    C   1.0     0.346875     0.128105     0.605798  Biso 1.000000     C
    C   1.0     0.368331     0.117761     0.530018  Biso 1.000000     C
    C   1.0     0.456953     0.110000     0.507104  Biso 1.000000     C
    C   1.0     0.523071     0.111644     0.563069  Biso 1.000000     C
    C   1.0     0.501622     0.122309     0.638871  Biso 1.000000     C
    C   1.0     0.479031     0.103332     0.426000  Biso 1.000000     C
    C   1.0     0.557765     0.133507     0.396302  Biso 1.000000     C
    C   1.0     0.573987     0.130004     0.319064  Biso 1.000000     C
    C   1.0     0.441807     0.067988     0.297809  Biso 1.000000     C
    C   1.0     0.421097     0.068986     0.374288  Biso 1.000000     C
    C   1.0     0.390294     0.143387     0.742958  Biso 1.000000     C
    C   1.0     0.329603     0.147708     0.004547  Biso 1.000000     C
    C   1.0     0.413171     0.129172     0.049452  Biso 1.000000     C
    C   1.0     0.296680     0.226084     0.029228  Biso 1.000000     C
    C   1.0     0.598092     0.661207     0.877983  Biso 1.000000     C
    C   1.0     0.664585     0.606097     0.880812  Biso 1.000000     C
    C   1.0     0.643285     0.530311     0.891179  Biso 1.000000     C
    C   1.0     0.554749     0.507305     0.899317  Biso 1.000000     C
    C   1.0     0.488531     0.563196     0.897936  Biso 1.000000     C
    C   1.0     0.509826     0.639038     0.887210  Biso 1.000000     C
    C   1.0     0.533056     0.426135     0.906077  Biso 1.000000     C
    C   1.0     0.454328     0.396090     0.876257  Biso 1.000000     C
    C   1.0     0.438683     0.318758     0.879739  Biso 1.000000     C
    C   1.0     0.571425     0.298094     0.941072  Biso 1.000000     C
    C   1.0     0.591540     0.374685     0.940142  Biso 1.000000     C
    C   1.0     0.621196     0.743146     0.865788  Biso 1.000000     C
    C   1.0     0.683779     0.004073     0.863254  Biso 1.000000     C
    C   1.0     0.600091     0.049127     0.880885  Biso 1.000000     C
    C   1.0     0.717081     0.027902     0.784742  Biso 1.000000     C
    C   1.0     0.599466     0.348877     0.131535  Biso 1.000000     C
    C   1.0     0.665813     0.404117     0.128570  Biso 1.000000     C
    C   1.0     0.644285     0.479873     0.118224  Biso 1.000000     C
    C   1.0     0.555664     0.502720     0.110255  Biso 1.000000     C
    C   1.0     0.489609     0.446691     0.111778  Biso 1.000000     C
    C   1.0     0.511129     0.370898     0.122476  Biso 1.000000     C
    C   1.0     0.533646     0.583839     0.103504  Biso 1.000000     C
    C   1.0     0.454801     0.613641     0.133357  Biso 1.000000     C
    C   1.0     0.438770     0.690919     0.129838  Biso 1.000000     C
    C   1.0     0.571344     0.712005     0.068404  Biso 1.000000     C
    C   1.0     0.591847     0.635485     0.069380  Biso 1.000000     C
    C   1.0     0.622657     0.266938     0.143684  Biso 1.000000     C
    C   1.0     0.683113     0.000000     0.146155  Biso 1.000000     C
    C   1.0     0.599495     0.960941     0.128567  Biso 1.000000     C
    C   1.0     0.716573     0.982251     0.224618  Biso 1.000000     C
    N   1.0     0.008305     0.911785     0.269982  Biso 1.000000     N
    N   1.0     0.008877     0.098119     0.739543  Biso 1.000000     N
    N   1.0     0.000000     0.270301     0.098650  Biso 1.000000     N
    N   1.0     0.000000     0.739556     0.910758  Biso 1.000000     N
    N   1.0     0.515176     0.911475     0.739615  Biso 1.000000     N
    N   1.0     0.516608     0.098479     0.269976  Biso 1.000000     N
    N   1.0     0.496637     0.269927     0.910884  Biso 1.000000     N
    N   1.0     0.496453     0.739945     0.098620  Biso 1.000000     N
    O   1.0     0.959840     0.858325     0.788832  Biso 1.000000     O
    O   1.0     0.813754     0.865368     0.758181  Biso 1.000000     O
    O   1.0     0.853348     0.865312     0.935053  Biso 1.000000     O
    O   1.0     0.993955     0.880917     0.015829  Biso 1.000000     O
    O   1.0     0.912614     0.893529     0.120176  Biso 1.000000     O
    O   1.0     0.961256     0.151633     0.220631  Biso 1.000000     O
    O   1.0     0.815145     0.144795     0.251230  Biso 1.000000     O
    O   1.0     0.854901     0.144067     0.074369  Biso 1.000000     O
    O   1.0     0.994199     0.129026     0.993635  Biso 1.000000     O
    O   1.0     0.912969     0.116349     0.889232  Biso 1.000000     O
    O   1.0     0.051569     0.789613     0.151545  Biso 1.000000     O
    O   1.0     0.197481     0.758568     0.144755  Biso 1.000000     O
    O   1.0     0.157606     0.936175     0.142329  Biso 1.000000     O
    O   1.0     0.018964     0.015887     0.129397  Biso 1.000000     O
    O   1.0     0.100273     0.120302     0.116671  Biso 1.000000     O
    O   1.0     0.051867     0.220410     0.857885  Biso 1.000000     O
    O   1.0     0.197769     0.251554     0.864603  Biso 1.000000     O
    O   1.0     0.158028     0.073966     0.867169  Biso 1.000000     O
    O   1.0     0.017204     0.994118     0.880096  Biso 1.000000     O
    O   1.0     0.098653     0.889779     0.892863  Biso 1.000000     O
    O   1.0     0.453046     0.858670     0.220615  Biso 1.000000     O
    O   1.0     0.306930     0.865687     0.251157  Biso 1.000000     O
    O   1.0     0.346573     0.865736     0.074296  Biso 1.000000     O
    O   1.0     0.485825     0.880374     0.993654  Biso 1.000000     O
    O   1.0     0.404621     0.893121     0.889258  Biso 1.000000     O
    O   1.0     0.453366     0.151330     0.788856  Biso 1.000000     O
    O   1.0     0.307279     0.144466     0.758176  Biso 1.000000     O
    O   1.0     0.346938     0.144251     0.935068  Biso 1.000000     O
    O   1.0     0.487554     0.129567     0.015821  Biso 1.000000     O
    O   1.0     0.406224     0.116842     0.120165  Biso 1.000000     O
    O   1.0     0.558347     0.789254     0.857904  Biso 1.000000     O
    O   1.0     0.704262     0.758204     0.864581  Biso 1.000000     O
    O   1.0     0.664384     0.935770     0.867159  Biso 1.000000     O
    O   1.0     0.525724     0.015485     0.880092  Biso 1.000000     O
    O   1.0     0.607032     0.119898     0.892834  Biso 1.000000     O
    O   1.0     0.559815     0.220815     0.151596  Biso 1.000000     O
    O   1.0     0.705736     0.251906     0.144809  Biso 1.000000     O
    O   1.0     0.665893     0.074355     0.142317  Biso 1.000000     O
    O   1.0     0.525086     0.994509     0.129372  Biso 1.000000     O
    O   1.0     0.606548     0.890173     0.116632  Biso 1.000000     O
   Zn   1.0     0.982769     0.858454     0.908185  Biso 1.000000    Zn
   Zn   1.0     0.984265     0.151453     0.101278  Biso 1.000000    Zn
   Zn   1.0     0.028641     0.909193     0.151188  Biso 1.000000    Zn
   Zn   1.0     0.029043     0.100828     0.858285  Biso 1.000000    Zn
   Zn   1.0     0.475990     0.858868     0.101254  Biso 1.000000    Zn
   Zn   1.0     0.476346     0.151080     0.908203  Biso 1.000000    Zn
   Zn   1.0     0.535408     0.908802     0.858328  Biso 1.000000    Zn
   Zn   1.0     0.536930     0.101215     0.151191  Biso 1.000000    Zn
   Zn   1.0     0.758392     0.861544     0.861218  Biso 1.000000    Zn
   Zn   1.0     0.759913     0.148542     0.148172  Biso 1.000000    Zn
   Zn   1.0     0.251596     0.861923     0.148144  Biso 1.000000    Zn
   Zn   1.0     0.251982     0.148191     0.861234  Biso 1.000000    Zn
