#======================================================================

# CRYSTAL DATA

#----------------------------------------------------------------------

data_VESTA_phase_1


_pd_phase_name                         MOF
_cell_length_a                         14.36400
_cell_length_b                         12.41700
_cell_length_c                         20.76100
_cell_angle_alpha                      90.00000
_cell_angle_beta                       90.00000
_cell_angle_gamma                      90.05100
_symmetry_space_group_name_H-M         "P 1"
_symmetry_Int_Tables_number            1

loop_
_symmetry_equiv_pos_as_xyz
   "x, y, z"

loop_
   _atom_site_label
   _atom_site_occupancy
   _atom_site_fract_x
   _atom_site_fract_y
   _atom_site_fract_z
   _atom_site_adp_type
   _atom_site_B_iso_or_equiv
   _atom_site_type_symbol
    H   1.0     0.240972     0.244089     0.512143  Biso 1.000000     H
    H   1.0     0.741363     0.243883     0.512280  Biso 1.000000     H
    H   1.0     0.314921     0.325047     0.608210  Biso 1.000000     H
    H   1.0     0.815421     0.324828     0.608304  Biso 1.000000     H
    H   1.0     0.425338     0.579540     0.490270  Biso 1.000000     H
    H   1.0     0.925473     0.579500     0.490350  Biso 1.000000     H
    H   1.0     0.355626     0.495297     0.393658  Biso 1.000000     H
    H   1.0     0.855729     0.495232     0.393766  Biso 1.000000     H
    H   1.0     0.186786     0.262473     0.403892  Biso 1.000000     H
    H   1.0     0.686998     0.262316     0.404050  Biso 1.000000     H
    H   1.0     0.286279     0.278702     0.354669  Biso 1.000000     H
    H   1.0     0.786486     0.278432     0.354812  Biso 1.000000     H
    H   1.0     0.056391     0.532335     0.350332  Biso 1.000000     H
    H   1.0     0.556756     0.532258     0.350411  Biso 1.000000     H
    H   1.0     0.043152     0.415782     0.398181  Biso 1.000000     H
    H   1.0     0.543417     0.415730     0.398270  Biso 1.000000     H
    H   1.0     0.008861     0.744130     0.487858  Biso 1.000000     H
    H   1.0     0.508735     0.744090     0.487638  Biso 1.000000     H
    H   1.0     0.434612     0.824993     0.391669  Biso 1.000000     H
    H   1.0     0.934646     0.824871     0.391861  Biso 1.000000     H
    H   1.0     0.324624     0.079277     0.509766  Biso 1.000000     H
    H   1.0     0.824532     0.079195     0.509878  Biso 1.000000     H
    H   1.0     0.394426     0.995043     0.606295  Biso 1.000000     H
    H   1.0     0.894407     0.995115     0.606429  Biso 1.000000     H
    H   1.0     0.063162     0.762560     0.596093  Biso 1.000000     H
    H   1.0     0.563119     0.762465     0.595879  Biso 1.000000     H
    H   1.0     0.463643     0.778373     0.645138  Biso 1.000000     H
    H   1.0     0.963737     0.778736     0.645397  Biso 1.000000     H
    H   1.0     0.193798     0.032691     0.649336  Biso 1.000000     H
    H   1.0     0.693575     0.032405     0.649547  Biso 1.000000     H
    H   1.0     0.206839     0.916120     0.601517  Biso 1.000000     H
    H   1.0     0.706728     0.915930     0.601658  Biso 1.000000     H
    H   1.0     0.258605     0.756139     0.012289  Biso 1.000000     H
    H   1.0     0.758995     0.755934     0.012152  Biso 1.000000     H
    H   1.0     0.184544     0.675196     0.108314  Biso 1.000000     H
    H   1.0     0.685046     0.674976     0.108220  Biso 1.000000     H
    H   1.0     0.074492     0.420525     0.990341  Biso 1.000000     H
    H   1.0     0.574629     0.420483     0.990260  Biso 1.000000     H
    H   1.0     0.144239     0.504790     0.893756  Biso 1.000000     H
    H   1.0     0.644341     0.504727     0.893649  Biso 1.000000     H
    H   1.0     0.312969     0.737706     0.904040  Biso 1.000000     H
    H   1.0     0.813181     0.737550     0.903882  Biso 1.000000     H
    H   1.0     0.213481     0.721592     0.854802  Biso 1.000000     H
    H   1.0     0.713688     0.721322     0.854660  Biso 1.000000     H
    H   1.0     0.443211     0.467765     0.850401  Biso 1.000000     H
    H   1.0     0.943576     0.467689     0.850322  Biso 1.000000     H
    H   1.0     0.456549     0.584293     0.898260  Biso 1.000000     H
    H   1.0     0.956814     0.584242     0.898171  Biso 1.000000     H
    H   1.0     0.491230     0.255933     0.987628  Biso 1.000000     H
    H   1.0     0.991105     0.255893     0.987848  Biso 1.000000     H
    H   1.0     0.065321     0.175153     0.891851  Biso 1.000000     H
    H   1.0     0.565356     0.175032     0.891659  Biso 1.000000     H
    H   1.0     0.175436     0.920828     0.009888  Biso 1.000000     H
    H   1.0     0.675345     0.920747     0.009776  Biso 1.000000     H
    H   1.0     0.105559     0.004908     0.106439  Biso 1.000000     H
    H   1.0     0.605539     0.004979     0.106304  Biso 1.000000     H
    H   1.0     0.436848     0.237557     0.095888  Biso 1.000000     H
    H   1.0     0.936805     0.237462     0.096103  Biso 1.000000     H
    H   1.0     0.036230     0.221287     0.145406  Biso 1.000000     H
    H   1.0     0.536324     0.221651     0.145148  Biso 1.000000     H
    H   1.0     0.306392     0.967619     0.149557  Biso 1.000000     H
    H   1.0     0.806169     0.967332     0.149346  Biso 1.000000     H
    H   1.0     0.293240     0.084094     0.101668  Biso 1.000000     H
    H   1.0     0.793128     0.083904     0.101526  Biso 1.000000     H
    H   1.0     0.258605     0.756139     0.487701  Biso 1.000000     H
    H   1.0     0.758995     0.755933     0.487838  Biso 1.000000     H
    H   1.0     0.184544     0.675197     0.391677  Biso 1.000000     H
    H   1.0     0.685044     0.674977     0.391771  Biso 1.000000     H
    H   1.0     0.074492     0.420524     0.509630  Biso 1.000000     H
    H   1.0     0.574628     0.420484     0.509711  Biso 1.000000     H
    H   1.0     0.144239     0.504790     0.606215  Biso 1.000000     H
    H   1.0     0.644342     0.504726     0.606322  Biso 1.000000     H
    H   1.0     0.312969     0.737706     0.595931  Biso 1.000000     H
    H   1.0     0.813180     0.737549     0.596089  Biso 1.000000     H
    H   1.0     0.213481     0.721592     0.645169  Biso 1.000000     H
    H   1.0     0.713688     0.721322     0.645312  Biso 1.000000     H
    H   1.0     0.443211     0.467765     0.649570  Biso 1.000000     H
    H   1.0     0.943576     0.467688     0.649649  Biso 1.000000     H
    H   1.0     0.456549     0.584293     0.601711  Biso 1.000000     H
    H   1.0     0.956814     0.584242     0.601800  Biso 1.000000     H
    H   1.0     0.491232     0.255934     0.512343  Biso 1.000000     H
    H   1.0     0.991105     0.255892     0.512123  Biso 1.000000     H
    H   1.0     0.065322     0.175153     0.608120  Biso 1.000000     H
    H   1.0     0.565354     0.175030     0.608312  Biso 1.000000     H
    H   1.0     0.175437     0.920829     0.490102  Biso 1.000000     H
    H   1.0     0.675343     0.920746     0.490215  Biso 1.000000     H
    H   1.0     0.105559     0.004907     0.393551  Biso 1.000000     H
    H   1.0     0.605541     0.004980     0.393686  Biso 1.000000     H
    H   1.0     0.436847     0.237558     0.404102  Biso 1.000000     H
    H   1.0     0.936804     0.237462     0.403887  Biso 1.000000     H
    H   1.0     0.036230     0.221287     0.354584  Biso 1.000000     H
    H   1.0     0.536324     0.221650     0.354843  Biso 1.000000     H
    H   1.0     0.306392     0.967619     0.350434  Biso 1.000000     H
    H   1.0     0.806168     0.967332     0.350644  Biso 1.000000     H
    H   1.0     0.293239     0.084094     0.398323  Biso 1.000000     H
    H   1.0     0.793128     0.083904     0.398463  Biso 1.000000     H
    H   1.0     0.240973     0.244088     0.987828  Biso 1.000000     H
    H   1.0     0.741362     0.243884     0.987692  Biso 1.000000     H
    H   1.0     0.314921     0.325048     0.891761  Biso 1.000000     H
    H   1.0     0.815423     0.324827     0.891667  Biso 1.000000     H
    H   1.0     0.425337     0.579540     0.009720  Biso 1.000000     H
    H   1.0     0.925475     0.579499     0.009640  Biso 1.000000     H
    H   1.0     0.355627     0.495296     0.106332  Biso 1.000000     H
    H   1.0     0.855728     0.495233     0.106225  Biso 1.000000     H
    H   1.0     0.186787     0.262473     0.096099  Biso 1.000000     H
    H   1.0     0.686998     0.262316     0.095940  Biso 1.000000     H
    H   1.0     0.286279     0.278702     0.145321  Biso 1.000000     H
    H   1.0     0.786486     0.278431     0.145179  Biso 1.000000     H
    H   1.0     0.056391     0.532334     0.149658  Biso 1.000000     H
    H   1.0     0.556756     0.532258     0.149579  Biso 1.000000     H
    H   1.0     0.043152     0.415782     0.101809  Biso 1.000000     H
    H   1.0     0.543418     0.415730     0.101721  Biso 1.000000     H
    H   1.0     0.008862     0.744130     0.012133  Biso 1.000000     H
    H   1.0     0.508734     0.744088     0.012352  Biso 1.000000     H
    H   1.0     0.434614     0.824994     0.108322  Biso 1.000000     H
    H   1.0     0.934646     0.824871     0.108130  Biso 1.000000     H
    H   1.0     0.324625     0.079278     0.990206  Biso 1.000000     H
    H   1.0     0.824531     0.079195     0.990092  Biso 1.000000     H
    H   1.0     0.394425     0.995042     0.893676  Biso 1.000000     H
    H   1.0     0.894407     0.995115     0.893541  Biso 1.000000     H
    H   1.0     0.063162     0.762561     0.903878  Biso 1.000000     H
    H   1.0     0.563119     0.762464     0.904093  Biso 1.000000     H
    H   1.0     0.463643     0.778373     0.854833  Biso 1.000000     H
    H   1.0     0.963737     0.778736     0.854574  Biso 1.000000     H
    H   1.0     0.193798     0.032691     0.850635  Biso 1.000000     H
    H   1.0     0.693574     0.032404     0.850425  Biso 1.000000     H
    H   1.0     0.206839     0.916120     0.898454  Biso 1.000000     H
    H   1.0     0.706728     0.915930     0.898314  Biso 1.000000     H
    C   1.0     0.284115     0.315931     0.506778  Biso 1.000000     C
    C   1.0     0.784457     0.315758     0.506891  Biso 1.000000     C
    C   1.0     0.325414     0.362035     0.561044  Biso 1.000000     C
    C   1.0     0.825809     0.361862     0.561140  Biso 1.000000     C
    C   1.0     0.374445     0.459420     0.556289  Biso 1.000000     C
    C   1.0     0.874769     0.459293     0.556377  Biso 1.000000     C
    C   1.0     0.386826     0.504353     0.494989  Biso 1.000000     C
    C   1.0     0.887025     0.504273     0.495078  Biso 1.000000     C
    C   1.0     0.347799     0.457059     0.440616  Biso 1.000000     C
    C   1.0     0.847978     0.456960     0.440718  Biso 1.000000     C
    C   1.0     0.292461     0.364629     0.446056  Biso 1.000000     C
    C   1.0     0.792705     0.364480     0.446167  Biso 1.000000     C
    C   1.0     0.240092     0.320725     0.388909  Biso 1.000000     C
    C   1.0     0.740315     0.320529     0.389031  Biso 1.000000     C
    C   1.0     0.092073     0.480187     0.385322  Biso 1.000000     C
    C   1.0     0.592392     0.480076     0.385404  Biso 1.000000     C
    C   1.0     0.465634     0.815863     0.493069  Biso 1.000000     C
    C   1.0     0.965686     0.815876     0.493261  Biso 1.000000     C
    C   1.0     0.424248     0.861944     0.438852  Biso 1.000000     C
    C   1.0     0.924267     0.861869     0.439029  Biso 1.000000     C
    C   1.0     0.375291     0.959268     0.443671  Biso 1.000000     C
    C   1.0     0.875251     0.959158     0.443818  Biso 1.000000     C
    C   1.0     0.363066     0.000000     0.504993  Biso 1.000000     C
    C   1.0     0.863018     0.000000     0.505126  Biso 1.000000     C
    C   1.0     0.402149     0.956851     0.559321  Biso 1.000000     C
    C   1.0     0.902136     0.956885     0.559467  Biso 1.000000     C
    C   1.0     0.457415     0.864488     0.553818  Biso 1.000000     C
    C   1.0     0.957453     0.864561     0.553988  Biso 1.000000     C
    C   1.0     0.009930     0.820772     0.611103  Biso 1.000000     C
    C   1.0     0.509820     0.820570     0.610926  Biso 1.000000     C
    C   1.0     0.157981     0.980457     0.614430  Biso 1.000000     C
    C   1.0     0.657841     0.980244     0.614562  Biso 1.000000     C
    C   1.0     0.215511     0.684264     0.006901  Biso 1.000000     C
    C   1.0     0.715853     0.684091     0.006788  Biso 1.000000     C
    C   1.0     0.174157     0.638161     0.061150  Biso 1.000000     C
    C   1.0     0.674553     0.637989     0.061054  Biso 1.000000     C
    C   1.0     0.125201     0.540728     0.056386  Biso 1.000000     C
    C   1.0     0.625522     0.540603     0.056299  Biso 1.000000     C
    C   1.0     0.112941     0.495751     0.995068  Biso 1.000000     C
    C   1.0     0.613140     0.495671     0.994979  Biso 1.000000     C
    C   1.0     0.151989     0.543063     0.940708  Biso 1.000000     C
    C   1.0     0.652168     0.542964     0.940607  Biso 1.000000     C
    C   1.0     0.207260     0.635546     0.946157  Biso 1.000000     C
    C   1.0     0.707505     0.635395     0.946047  Biso 1.000000     C
    C   1.0     0.259650     0.679495     0.889021  Biso 1.000000     C
    C   1.0     0.759875     0.679298     0.888900  Biso 1.000000     C
    C   1.0     0.407575     0.519946     0.885395  Biso 1.000000     C
    C   1.0     0.907894     0.519836     0.885313  Biso 1.000000     C
    C   1.0     0.034280     0.184147     0.993251  Biso 1.000000     C
    C   1.0     0.534332     0.184159     0.993059  Biso 1.000000     C
    C   1.0     0.075700     0.138155     0.939019  Biso 1.000000     C
    C   1.0     0.575719     0.138080     0.938842  Biso 1.000000     C
    C   1.0     0.124714     0.040864     0.943808  Biso 1.000000     C
    C   1.0     0.624673     0.040754     0.943661  Biso 1.000000     C
    C   1.0     0.136950    -0.004076     0.005135  Biso 1.000000     C
    C   1.0     0.636901    -0.004129     0.005003  Biso 1.000000     C
    C   1.0     0.097831     0.043138     0.059476  Biso 1.000000     C
    C   1.0     0.597817     0.043171     0.059330  Biso 1.000000     C
    C   1.0     0.042516     0.135463     0.053998  Biso 1.000000     C
    C   1.0     0.542554     0.135537     0.053828  Biso 1.000000     C
    C   1.0     0.490148     0.179453     0.110936  Biso 1.000000     C
    C   1.0     0.990038     0.179251     0.111112  Biso 1.000000     C
    C   1.0     0.342126     0.019779     0.114572  Biso 1.000000     C
    C   1.0     0.841985     0.019565     0.114439  Biso 1.000000     C
    C   1.0     0.215510     0.684264     0.493089  Biso 1.000000     C
    C   1.0     0.715853     0.684091     0.493203  Biso 1.000000     C
    C   1.0     0.174157     0.638162     0.438840  Biso 1.000000     C
    C   1.0     0.674552     0.637989     0.438937  Biso 1.000000     C
    C   1.0     0.125200     0.540729     0.443604  Biso 1.000000     C
    C   1.0     0.625524     0.540602     0.443691  Biso 1.000000     C
    C   1.0     0.112941     0.495751     0.504903  Biso 1.000000     C
    C   1.0     0.613140     0.495671     0.504992  Biso 1.000000     C
    C   1.0     0.151989     0.543063     0.559263  Biso 1.000000     C
    C   1.0     0.652169     0.542963     0.559365  Biso 1.000000     C
    C   1.0     0.207260     0.635545     0.553814  Biso 1.000000     C
    C   1.0     0.707503     0.635396     0.553925  Biso 1.000000     C
    C   1.0     0.259651     0.679494     0.610950  Biso 1.000000     C
    C   1.0     0.759874     0.679298     0.611072  Biso 1.000000     C
    C   1.0     0.407575     0.519946     0.614576  Biso 1.000000     C
    C   1.0     0.907894     0.519835     0.614659  Biso 1.000000     C
    C   1.0     0.034280     0.184147     0.506720  Biso 1.000000     C
    C   1.0     0.534333     0.184160     0.506912  Biso 1.000000     C
    C   1.0     0.075700     0.138155     0.560952  Biso 1.000000     C
    C   1.0     0.575718     0.138080     0.561129  Biso 1.000000     C
    C   1.0     0.124714     0.040864     0.556163  Biso 1.000000     C
    C   1.0     0.624676     0.040755     0.556310  Biso 1.000000     C
    C   1.0     0.136950    -0.004076     0.494855  Biso 1.000000     C
    C   1.0     0.636900    -0.004129     0.494988  Biso 1.000000     C
    C   1.0     0.097830     0.043138     0.440514  Biso 1.000000     C
    C   1.0     0.597818     0.043172     0.440660  Biso 1.000000     C
    C   1.0     0.042516     0.135464     0.445992  Biso 1.000000     C
    C   1.0     0.542552     0.135535     0.446163  Biso 1.000000     C
    C   1.0     0.490147     0.179453     0.389055  Biso 1.000000     C
    C   1.0     0.990038     0.179251     0.388878  Biso 1.000000     C
    C   1.0     0.342126     0.019780     0.385419  Biso 1.000000     C
    C   1.0     0.841985     0.019565     0.385551  Biso 1.000000     C
    C   1.0     0.284114     0.315931     0.993193  Biso 1.000000     C
    C   1.0     0.784457     0.315759     0.993080  Biso 1.000000     C
    C   1.0     0.325414     0.362035     0.938927  Biso 1.000000     C
    C   1.0     0.825809     0.361862     0.938831  Biso 1.000000     C
    C   1.0     0.374446     0.459419     0.943682  Biso 1.000000     C
    C   1.0     0.874767     0.459295     0.943595  Biso 1.000000     C
    C   1.0     0.386826     0.504352     0.005002  Biso 1.000000     C
    C   1.0     0.887026     0.504272     0.004912  Biso 1.000000     C
    C   1.0     0.347800     0.457059     0.059375  Biso 1.000000     C
    C   1.0     0.847978     0.456960     0.059272  Biso 1.000000     C
    C   1.0     0.292461     0.364630     0.053934  Biso 1.000000     C
    C   1.0     0.792707     0.364478     0.053824  Biso 1.000000     C
    C   1.0     0.240092     0.320725     0.111081  Biso 1.000000     C
    C   1.0     0.740316     0.320529     0.110959  Biso 1.000000     C
    C   1.0     0.092074     0.480186     0.114668  Biso 1.000000     C
    C   1.0     0.592392     0.480077     0.114586  Biso 1.000000     C
    C   1.0     0.465634     0.815862     0.006921  Biso 1.000000     C
    C   1.0     0.965687     0.815876     0.006730  Biso 1.000000     C
    C   1.0     0.424249     0.861944     0.061138  Biso 1.000000     C
    C   1.0     0.924267     0.861868     0.060961  Biso 1.000000     C
    C   1.0     0.375289     0.959267     0.056319  Biso 1.000000     C
    C   1.0     0.875252     0.959158     0.056172  Biso 1.000000     C
    C   1.0     0.363067     0.000000     0.994978  Biso 1.000000     C
    C   1.0     0.863017     0.000000     0.994845  Biso 1.000000     C
    C   1.0     0.402148     0.956851     0.940650  Biso 1.000000     C
    C   1.0     0.902136     0.956885     0.940504  Biso 1.000000     C
    C   1.0     0.457417     0.864490     0.946154  Biso 1.000000     C
    C   1.0     0.957452     0.864561     0.945983  Biso 1.000000     C
    C   1.0     0.009930     0.820772     0.888869  Biso 1.000000     C
    C   1.0     0.509821     0.820571     0.889045  Biso 1.000000     C
    C   1.0     0.157982     0.980458     0.885541  Biso 1.000000     C
    C   1.0     0.657841     0.980243     0.885409  Biso 1.000000     C
    S   1.0     0.187137     0.422723     0.336528  Biso 1.000000     S
    S   1.0     0.687386     0.422494     0.336602  Biso 1.000000     S
    S   1.0     0.063056     0.922883     0.663400  Biso 1.000000     S
    S   1.0     0.562812     0.922565     0.663381  Biso 1.000000     S
    S   1.0     0.312582     0.577530     0.836593  Biso 1.000000     S
    S   1.0     0.812830     0.577300     0.836519  Biso 1.000000     S
    S   1.0     0.437154     0.077459     0.163390  Biso 1.000000     S
    S   1.0     0.936910     0.077140     0.163409  Biso 1.000000     S
    S   1.0     0.312582     0.577530     0.663378  Biso 1.000000     S
    S   1.0     0.812830     0.577300     0.663452  Biso 1.000000     S
    S   1.0     0.437155     0.077458     0.336600  Biso 1.000000     S
    S   1.0     0.936910     0.077140     0.336581  Biso 1.000000     S
    S   1.0     0.187137     0.422723     0.163462  Biso 1.000000     S
    S   1.0     0.687385     0.422493     0.163388  Biso 1.000000     S
    S   1.0     0.063057     0.922883     0.836571  Biso 1.000000     S
    S   1.0     0.562812     0.922565     0.836590  Biso 1.000000     S
   Cu   1.0     0.125282     0.333803     0.249995  Biso 1.000000    Cu
   Cu   1.0     0.625325     0.333796     0.249995  Biso 1.000000    Cu
   Cu   1.0     0.124849     0.834019     0.749986  Biso 1.000000    Cu
   Cu   1.0     0.624678     0.833841     0.749986  Biso 1.000000    Cu
   Cu   1.0     0.374642     0.666227     0.749986  Biso 1.000000    Cu
   Cu   1.0     0.874685     0.666220     0.749986  Biso 1.000000    Cu
   Cu   1.0     0.375289     0.166183     0.249995  Biso 1.000000    Cu
   Cu   1.0     0.875117     0.166004     0.249995  Biso 1.000000    Cu
   Br   1.0     0.448911     0.350404     0.249995  Biso 1.000000    Br
   Br   1.0     0.948827     0.350125     0.249995  Biso 1.000000    Br
   Br   1.0     0.301280     0.850427     0.749985  Biso 1.000000    Br
   Br   1.0     0.801140     0.850350     0.749986  Biso 1.000000    Br
   Br   1.0     0.051140     0.649899     0.749986  Biso 1.000000    Br
   Br   1.0     0.551056     0.649619     0.749986  Biso 1.000000    Br
   Br   1.0     0.198827     0.149673     0.249995  Biso 1.000000    Br
   Br   1.0     0.698687     0.149596     0.249995  Biso 1.000000    Br
