#======================================================================

# CRYSTAL DATA

#----------------------------------------------------------------------

data_VESTA_phase_1


_pd_phase_name                         MOF
_cell_length_a                         20.11600
_cell_length_b                         16.67900
_cell_length_c                         18.52700
_cell_angle_alpha                      106.22700
_cell_angle_beta                       105.75000
_cell_angle_gamma                      90.00000
_symmetry_space_group_name_H-M         "P 1"
_symmetry_Int_Tables_number            1

loop_
_symmetry_equiv_pos_as_xyz
   "x, y, z"

loop_
   _atom_site_label
   _atom_site_occupancy
   _atom_site_fract_x
   _atom_site_fract_y
   _atom_site_fract_z
   _atom_site_adp_type
   _atom_site_B_iso_or_equiv
   _atom_site_type_symbol
    H   1.0     0.274613     0.887937     0.237624  Biso 1.000000     H
    H   1.0     0.777260     0.887935     0.237622  Biso 1.000000     H
    H   1.0     0.117145     0.897700     0.000000  Biso 1.000000     H
    H   1.0     0.619792     0.897699     0.000000  Biso 1.000000     H
    H   1.0     0.068338     0.850802     0.083813  Biso 1.000000     H
    H   1.0     0.570985     0.850803     0.083813  Biso 1.000000     H
    H   1.0     0.416745     0.864976     0.185734  Biso 1.000000     H
    H   1.0     0.919391     0.864977     0.185734  Biso 1.000000     H
    H   1.0     0.368361     0.924282     0.246875  Biso 1.000000     H
    H   1.0     0.871005     0.924279     0.246874  Biso 1.000000     H
    H   1.0     0.026699     0.937504     0.208812  Biso 1.000000     H
    H   1.0     0.529336     0.937502     0.208812  Biso 1.000000     H
    H   1.0     0.099068     0.043643     0.244321  Biso 1.000000     H
    H   1.0     0.601705     0.043641     0.244319  Biso 1.000000     H
    H   1.0     0.434698     0.183684     0.266764  Biso 1.000000     H
    H   1.0     0.937340     0.183685     0.266763  Biso 1.000000     H
    H   1.0     0.355012     0.054724     0.232180  Biso 1.000000     H
    H   1.0     0.857655     0.054723     0.232180  Biso 1.000000     H
    H   1.0     0.178093     0.948688     0.924779  Biso 1.000000     H
    H   1.0     0.680741     0.948687     0.924778  Biso 1.000000     H
    H   1.0     0.179087     0.841611     0.924806  Biso 1.000000     H
    H   1.0     0.681735     0.841611     0.924804  Biso 1.000000     H
    H   1.0     0.175593     0.825548     0.777017  Biso 1.000000     H
    H   1.0     0.678241     0.825547     0.777017  Biso 1.000000     H
    H   1.0     0.254107     0.799051     0.691788  Biso 1.000000     H
    H   1.0     0.756755     0.799051     0.691788  Biso 1.000000     H
    H   1.0     0.426690     0.896091     0.880944  Biso 1.000000     H
    H   1.0     0.929337     0.896092     0.880943  Biso 1.000000     H
    H   1.0     0.354423     0.929850     0.974787  Biso 1.000000     H
    H   1.0     0.857070     0.929850     0.974786  Biso 1.000000     H
    H   1.0     0.425984     0.939782     0.404977  Biso 1.000000     H
    H   1.0     0.928626     0.939782     0.404975  Biso 1.000000     H
    H   1.0     0.081468     0.095472     0.422769  Biso 1.000000     H
    H   1.0     0.584107     0.095472     0.422773  Biso 1.000000     H
    H   1.0     0.387749     0.172323     0.457063  Biso 1.000000     H
    H   1.0     0.890391     0.172325     0.457061  Biso 1.000000     H
    H   1.0     0.159924     0.674764     0.786846  Biso 1.000000     H
    H   1.0     0.662571     0.674765     0.786847  Biso 1.000000     H
    H   1.0     0.123430     0.669366     0.022272  Biso 1.000000     H
    H   1.0     0.626077     0.669365     0.022272  Biso 1.000000     H
    H   1.0     0.031865     0.714890     0.942210  Biso 1.000000     H
    H   1.0     0.534512     0.714889     0.942210  Biso 1.000000     H
    H   1.0     0.327423     0.697130     0.837195  Biso 1.000000     H
    H   1.0     0.830071     0.697130     0.837196  Biso 1.000000     H
    H   1.0     0.248582     0.636873     0.776979  Biso 1.000000     H
    H   1.0     0.751230     0.636874     0.776979  Biso 1.000000     H
    H   1.0     0.429160     0.624857     0.815798  Biso 1.000000     H
    H   1.0     0.931808     0.624858     0.815798  Biso 1.000000     H
    H   1.0     0.483869     0.490337     0.781098  Biso 1.000000     H
    H   1.0     0.986516     0.490337     0.781097  Biso 1.000000     H
    H   1.0     0.305818     0.350088     0.758901  Biso 1.000000     H
    H   1.0     0.808466     0.350089     0.758901  Biso 1.000000     H
    H   1.0     0.243076     0.478927     0.792650  Biso 1.000000     H
    H   1.0     0.745724     0.478928     0.792650  Biso 1.000000     H
    H   1.0     0.223153     0.616492     0.099963  Biso 1.000000     H
    H   1.0     0.725800     0.616491     0.099963  Biso 1.000000     H
    H   1.0     0.225120     0.723820     0.100839  Biso 1.000000     H
    H   1.0     0.727767     0.723820     0.100839  Biso 1.000000     H
    H   1.0     0.295376     0.738354     0.248285  Biso 1.000000     H
    H   1.0     0.798022     0.738354     0.248284  Biso 1.000000     H
    H   1.0     0.416598     0.763319     0.333288  Biso 1.000000     H
    H   1.0     0.919244     0.763318     0.333288  Biso 1.000000     H
    H   1.0     0.493926     0.665983     0.143642  Biso 1.000000     H
    H   1.0     0.996573     0.665984     0.143643  Biso 1.000000     H
    H   1.0     0.374618     0.633892     0.049980  Biso 1.000000     H
    H   1.0     0.877265     0.633891     0.049980  Biso 1.000000     H
    H   1.0     0.227920     0.622394     0.619470  Biso 1.000000     H
    H   1.0     0.730567     0.622395     0.619470  Biso 1.000000     H
    H   1.0     0.376878     0.438150     0.602402  Biso 1.000000     H
    H   1.0     0.879525     0.438151     0.602403  Biso 1.000000     H
    H   1.0     0.163366     0.361534     0.568355  Biso 1.000000     H
    H   1.0     0.666013     0.361534     0.568356  Biso 1.000000     H
    H   1.0     0.232897     0.160103     0.787350  Biso 1.000000     H
    H   1.0     0.735544     0.160103     0.787350  Biso 1.000000     H
    H   1.0     0.390378     0.150368     0.021037  Biso 1.000000     H
    H   1.0     0.893026     0.150370     0.021037  Biso 1.000000     H
    H   1.0     0.439176     0.197264     0.941153  Biso 1.000000     H
    H   1.0     0.941824     0.197265     0.941153  Biso 1.000000     H
    H   1.0     0.090769     0.183082     0.839275  Biso 1.000000     H
    H   1.0     0.593418     0.183081     0.839276  Biso 1.000000     H
    H   1.0     0.139149     0.123797     0.778115  Biso 1.000000     H
    H   1.0     0.641794     0.123793     0.778115  Biso 1.000000     H
    H   1.0     0.480821     0.110554     0.816158  Biso 1.000000     H
    H   1.0     0.983457     0.110553     0.816156  Biso 1.000000     H
    H   1.0     0.408446     0.000000     0.780627  Biso 1.000000     H
    H   1.0     0.911083     0.000000     0.780625  Biso 1.000000     H
    H   1.0     0.072811     0.864369     0.758186  Biso 1.000000     H
    H   1.0     0.575452     0.864369     0.758186  Biso 1.000000     H
    H   1.0     0.152502     0.993331     0.792794  Biso 1.000000     H
    H   1.0     0.655144     0.993329     0.792794  Biso 1.000000     H
    H   1.0     0.329434     0.099389     0.100208  Biso 1.000000     H
    H   1.0     0.832081     0.099390     0.100208  Biso 1.000000     H
    H   1.0     0.328434     0.206464     0.100177  Biso 1.000000     H
    H   1.0     0.831083     0.206464     0.100176  Biso 1.000000     H
    H   1.0     0.331921     0.222527     0.247969  Biso 1.000000     H
    H   1.0     0.834569     0.222528     0.247969  Biso 1.000000     H
    H   1.0     0.253398     0.249021     0.333186  Biso 1.000000     H
    H   1.0     0.756045     0.249021     0.333186  Biso 1.000000     H
    H   1.0     0.080827     0.151967     0.144018  Biso 1.000000     H
    H   1.0     0.583476     0.151965     0.144017  Biso 1.000000     H
    H   1.0     0.153106     0.118210     0.050187  Biso 1.000000     H
    H   1.0     0.655754     0.118210     0.050187  Biso 1.000000     H
    H   1.0     0.081519     0.108282     0.619977  Biso 1.000000     H
    H   1.0     0.584163     0.108282     0.619980  Biso 1.000000     H
    H   1.0     0.426041     0.952588     0.602182  Biso 1.000000     H
    H   1.0     0.928677     0.952588     0.602180  Biso 1.000000     H
    H   1.0     0.119755     0.875740     0.567886  Biso 1.000000     H
    H   1.0     0.622399     0.875741     0.567889  Biso 1.000000     H
    H   1.0     0.347574     0.373300     0.238114  Biso 1.000000     H
    H   1.0     0.850221     0.373302     0.238114  Biso 1.000000     H
    H   1.0     0.384063     0.378699     0.000000  Biso 1.000000     H
    H   1.0     0.886711     0.378700     0.000000  Biso 1.000000     H
    H   1.0     0.475629     0.333173     0.082747  Biso 1.000000     H
    H   1.0     0.978276     0.333175     0.082747  Biso 1.000000     H
    H   1.0     0.180073     0.350924     0.187756  Biso 1.000000     H
    H   1.0     0.682720     0.350924     0.187757  Biso 1.000000     H
    H   1.0     0.258911     0.411180     0.247983  Biso 1.000000     H
    H   1.0     0.761558     0.411179     0.247982  Biso 1.000000     H
    H   1.0     0.078333     0.423196     0.209159  Biso 1.000000     H
    H   1.0     0.580980     0.423196     0.209160  Biso 1.000000     H
    H   1.0     0.023623     0.557716     0.243860  Biso 1.000000     H
    H   1.0     0.526271     0.557716     0.243861  Biso 1.000000     H
    H   1.0     0.201677     0.697966     0.266066  Biso 1.000000     H
    H   1.0     0.704324     0.697966     0.266067  Biso 1.000000     H
    H   1.0     0.264419     0.569128     0.232318  Biso 1.000000     H
    H   1.0     0.767066     0.569128     0.232319  Biso 1.000000     H
    H   1.0     0.284342     0.431564     0.924992  Biso 1.000000     H
    H   1.0     0.786989     0.431564     0.924992  Biso 1.000000     H
    H   1.0     0.282374     0.324239     0.924128  Biso 1.000000     H
    H   1.0     0.785021     0.324240     0.924128  Biso 1.000000     H
    H   1.0     0.212121     0.309683     0.776681  Biso 1.000000     H
    H   1.0     0.714767     0.309683     0.776680  Biso 1.000000     H
    H   1.0     0.090899     0.284717     0.691676  Biso 1.000000     H
    H   1.0     0.593545     0.284716     0.691676  Biso 1.000000     H
    H   1.0     0.013568     0.382081     0.881314  Biso 1.000000     H
    H   1.0     0.516215     0.382081     0.881315  Biso 1.000000     H
    H   1.0     0.132876     0.414178     0.974979  Biso 1.000000     H
    H   1.0     0.635523     0.414177     0.974979  Biso 1.000000     H
    H   1.0     0.279576     0.425668     0.405489  Biso 1.000000     H
    H   1.0     0.782223     0.425669     0.405489  Biso 1.000000     H
    H   1.0     0.130621     0.609915     0.422559  Biso 1.000000     H
    H   1.0     0.633268     0.609916     0.422561  Biso 1.000000     H
    H   1.0     0.344132     0.686526     0.456596  Biso 1.000000     H
    H   1.0     0.846778     0.686526     0.456597  Biso 1.000000     H
    C   1.0     0.143816     0.839446     0.225019  Biso 1.000000     C
    C   1.0     0.646463     0.839444     0.225018  Biso 1.000000     C
    C   1.0     0.169316     0.866808     0.166196  Biso 1.000000     C
    C   1.0     0.671963     0.866804     0.166194  Biso 1.000000     C
    C   1.0     0.240751     0.886462     0.180317  Biso 1.000000     C
    C   1.0     0.743398     0.886463     0.180317  Biso 1.000000     C
    C   1.0     0.266218     0.900756     0.121856  Biso 1.000000     C
    C   1.0     0.768864     0.900762     0.121857  Biso 1.000000     C
    C   1.0     0.219199     0.895698     0.047462  Biso 1.000000     C
    C   1.0     0.721845     0.895703     0.047462  Biso 1.000000     C
    C   1.0     0.148210     0.880928     0.035407  Biso 1.000000     C
    C   1.0     0.650857     0.880928     0.035407  Biso 1.000000     C
    C   1.0     0.123396     0.865992     0.094261  Biso 1.000000     C
    C   1.0     0.626043     0.865989     0.094259  Biso 1.000000     C
    C   1.0     0.388794     0.921657     0.197069  Biso 1.000000     C
    C   1.0     0.891439     0.921657     0.197070  Biso 1.000000     C
    C   1.0     0.435617     0.999606     0.216299  Biso 1.000000     C
    C   1.0     0.938259     0.999607     0.216300  Biso 1.000000     C
    C   1.0     0.505748     0.997039     0.219617  Biso 1.000000     C
    C   1.0     0.000000     0.997041     0.219617  Biso 1.000000     C
    C   1.0     0.043858     0.043622     0.239709  Biso 1.000000     C
    C   1.0     0.546495     0.043622     0.239708  Biso 1.000000     C
    C   1.0     0.452741     0.121217     0.251840  Biso 1.000000     C
    C   1.0     0.955383     0.121219     0.251839  Biso 1.000000     C
    C   1.0     0.409153     0.049506     0.232714  Biso 1.000000     C
    C   1.0     0.911796     0.049506     0.232712  Biso 1.000000     C
    C   1.0     0.212183     0.899187     0.936743  Biso 1.000000     C
    C   1.0     0.714830     0.899186     0.936743  Biso 1.000000     C
    C   1.0     0.258652     0.882520     0.883610  Biso 1.000000     C
    C   1.0     0.761300     0.882520     0.883610  Biso 1.000000     C
    C   1.0     0.230686     0.845047     0.802841  Biso 1.000000     C
    C   1.0     0.733334     0.845046     0.802841  Biso 1.000000     C
    C   1.0     0.274367     0.829192     0.754578  Biso 1.000000     C
    C   1.0     0.777014     0.829192     0.754578  Biso 1.000000     C
    C   1.0     0.370493     0.883417     0.860295  Biso 1.000000     C
    C   1.0     0.873140     0.883417     0.860295  Biso 1.000000     C
    C   1.0     0.330352     0.902000     0.912345  Biso 1.000000     C
    C   1.0     0.832999     0.902000     0.912345  Biso 1.000000     C
    C   1.0     0.328778     0.014990     0.436465  Biso 1.000000     C
    C   1.0     0.831418     0.014990     0.436459  Biso 1.000000     C
    C   1.0     0.399403     0.039161     0.431869  Biso 1.000000     C
    C   1.0     0.902043     0.039162     0.431865  Biso 1.000000     C
    C   1.0     0.443462     0.000000     0.414844  Biso 1.000000     C
    C   1.0     0.946101     0.000000     0.414838  Biso 1.000000     C
    C   1.0     0.510148     0.000000     0.412328  Biso 1.000000     C
    C   1.0     0.000000     0.000000     0.412322  Biso 1.000000     C
    C   1.0     0.029723     0.079568     0.424881  Biso 1.000000     C
    C   1.0     0.532363     0.079569     0.424888  Biso 1.000000     C
    C   1.0     0.487501     0.142755     0.438272  Biso 1.000000     C
    C   1.0     0.990142     0.142754     0.438268  Biso 1.000000     C
    C   1.0     0.421622     0.122663     0.443997  Biso 1.000000     C
    C   1.0     0.924262     0.122663     0.443990  Biso 1.000000     C
    C   1.0     0.054162     0.955581     0.393971  Biso 1.000000     C
    C   1.0     0.556805     0.955581     0.393975  Biso 1.000000     C
    C   1.0     0.507515     0.230037     0.439265  Biso 1.000000     C
    C   1.0     0.000000     0.230035     0.439261  Biso 1.000000     C
    C   1.0     0.035527     0.723561     0.799911  Biso 1.000000     C
    C   1.0     0.538172     0.723561     0.799910  Biso 1.000000     C
    C   1.0     0.090951     0.697308     0.859037  Biso 1.000000     C
    C   1.0     0.593597     0.697310     0.859038  Biso 1.000000     C
    C   1.0     0.155108     0.677152     0.844510  Biso 1.000000     C
    C   1.0     0.657754     0.677153     0.844510  Biso 1.000000     C
    C   1.0     0.210023     0.663186     0.902936  Biso 1.000000     C
    C   1.0     0.712669     0.663186     0.902935  Biso 1.000000     C
    C   1.0     0.200786     0.669540     0.977826  Biso 1.000000     C
    C   1.0     0.703432     0.669540     0.977826  Biso 1.000000     C
    C   1.0     0.136098     0.685074     0.990417  Biso 1.000000     C
    C   1.0     0.638744     0.685074     0.990417  Biso 1.000000     C
    C   1.0     0.081549     0.699342     0.931488  Biso 1.000000     C
    C   1.0     0.584195     0.699343     0.931488  Biso 1.000000     C
    C   1.0     0.294190     0.640398     0.826750  Biso 1.000000     C
    C   1.0     0.796837     0.640398     0.826750  Biso 1.000000     C
    C   1.0     0.331717     0.562608     0.808218  Biso 1.000000     C
    C   1.0     0.834365     0.562609     0.808219  Biso 1.000000     C
    C   1.0     0.400263     0.565302     0.805164  Biso 1.000000     C
    C   1.0     0.902911     0.565302     0.805164  Biso 1.000000     C
    C   1.0     0.430916     0.490307     0.785554  Biso 1.000000     C
    C   1.0     0.933563     0.490308     0.785554  Biso 1.000000     C
    C   1.0     0.331193     0.412582     0.773574  Biso 1.000000     C
    C   1.0     0.833840     0.412583     0.773575  Biso 1.000000     C
    C   1.0     0.296974     0.484218     0.792217  Biso 1.000000     C
    C   1.0     0.799622     0.484219     0.792219  Biso 1.000000     C
    C   1.0     0.251734     0.665901     0.088404  Biso 1.000000     C
    C   1.0     0.754381     0.665900     0.088404  Biso 1.000000     C
    C   1.0     0.324784     0.681483     0.141434  Biso 1.000000     C
    C   1.0     0.827431     0.681483     0.141433  Biso 1.000000     C
    C   1.0     0.337411     0.718506     0.222295  Biso 1.000000     C
    C   1.0     0.840057     0.718505     0.222295  Biso 1.000000     C
    C   1.0     0.405276     0.733486     0.270431  Biso 1.000000     C
    C   1.0     0.907922     0.733485     0.270431  Biso 1.000000     C
    C   1.0     0.448170     0.679118     0.164444  Biso 1.000000     C
    C   1.0     0.950817     0.679118     0.164444  Biso 1.000000     C
    C   1.0     0.381940     0.661444     0.112491  Biso 1.000000     C
    C   1.0     0.884587     0.661444     0.112491  Biso 1.000000     C
    C   1.0     0.114754     0.518925     0.588662  Biso 1.000000     C
    C   1.0     0.617399     0.518925     0.588665  Biso 1.000000     C
    C   1.0     0.187634     0.494645     0.593168  Biso 1.000000     C
    C   1.0     0.690280     0.494645     0.593172  Biso 1.000000     C
    C   1.0     0.240447     0.557555     0.609875  Biso 1.000000     C
    C   1.0     0.743094     0.557555     0.609879  Biso 1.000000     C
    C   1.0     0.308385     0.537789     0.612435  Biso 1.000000     C
    C   1.0     0.811032     0.537789     0.612439  Biso 1.000000     C
    C   1.0     0.324075     0.454098     0.600233  Biso 1.000000     C
    C   1.0     0.826722     0.454098     0.600238  Biso 1.000000     C
    C   1.0     0.272499     0.390996     0.587038  Biso 1.000000     C
    C   1.0     0.775145     0.390997     0.587041  Biso 1.000000     C
    C   1.0     0.203770     0.411154     0.581288  Biso 1.000000     C
    C   1.0     0.706418     0.411155     0.581293  Biso 1.000000     C
    C   1.0     0.364140     0.606541     0.630464  Biso 1.000000     C
    C   1.0     0.866786     0.606541     0.630466  Biso 1.000000     C
    C   1.0     0.291890     0.303675     0.586026  Biso 1.000000     C
    C   1.0     0.794537     0.303676     0.586029  Biso 1.000000     C
    C   1.0     0.363687     0.208613     0.799947  Biso 1.000000     C
    C   1.0     0.866333     0.208616     0.799948  Biso 1.000000     C
    C   1.0     0.338196     0.181246     0.858774  Biso 1.000000     C
    C   1.0     0.840842     0.181249     0.858775  Biso 1.000000     C
    C   1.0     0.266762     0.161582     0.844656  Biso 1.000000     C
    C   1.0     0.769409     0.161583     0.844657  Biso 1.000000     C
    C   1.0     0.241301     0.147289     0.903121  Biso 1.000000     C
    C   1.0     0.743949     0.147288     0.903121  Biso 1.000000     C
    C   1.0     0.288323     0.152356     0.977516  Biso 1.000000     C
    C   1.0     0.790971     0.152356     0.977516  Biso 1.000000     C
    C   1.0     0.359310     0.167134     0.989566  Biso 1.000000     C
    C   1.0     0.861958     0.167136     0.989567  Biso 1.000000     C
    C   1.0     0.384120     0.182070     0.930709  Biso 1.000000     C
    C   1.0     0.886767     0.182072     0.930710  Biso 1.000000     C
    C   1.0     0.118721     0.126403     0.827921  Biso 1.000000     C
    C   1.0     0.621367     0.126401     0.827921  Biso 1.000000     C
    C   1.0     0.071900     0.048450     0.808677  Biso 1.000000     C
    C   1.0     0.574543     0.048450     0.808678  Biso 1.000000     C
    C   1.0     0.001766     0.051016     0.805349  Biso 1.000000     C
    C   1.0     0.504409     0.051017     0.805350  Biso 1.000000     C
    C   1.0     0.463657     0.000000     0.785245  Biso 1.000000     C
    C   1.0     0.966294     0.000000     0.785244  Biso 1.000000     C
    C   1.0     0.054769     0.926837     0.773116  Biso 1.000000     C
    C   1.0     0.557412     0.926837     0.773116  Biso 1.000000     C
    C   1.0     0.098360     0.998549     0.792256  Biso 1.000000     C
    C   1.0     0.601002     0.998549     0.792256  Biso 1.000000     C
    C   1.0     0.295342     0.148887     0.088240  Biso 1.000000     C
    C   1.0     0.797989     0.148888     0.088240  Biso 1.000000     C
    C   1.0     0.248870     0.165549     0.141370  Biso 1.000000     C
    C   1.0     0.751518     0.165550     0.141371  Biso 1.000000     C
    C   1.0     0.276830     0.203024     0.222140  Biso 1.000000     C
    C   1.0     0.779478     0.203022     0.222140  Biso 1.000000     C
    C   1.0     0.233144     0.218877     0.270397  Biso 1.000000     C
    C   1.0     0.735791     0.218877     0.270397  Biso 1.000000     C
    C   1.0     0.137024     0.164646     0.164672  Biso 1.000000     C
    C   1.0     0.639672     0.164645     0.164672  Biso 1.000000     C
    C   1.0     0.177171     0.146063     0.112628  Biso 1.000000     C
    C   1.0     0.679819     0.146062     0.112629  Biso 1.000000     C
    C   1.0     0.178721     0.000000     0.588480  Biso 1.000000     C
    C   1.0     0.681366     0.000000     0.588485  Biso 1.000000     C
    C   1.0     0.108099     0.000000     0.593079  Biso 1.000000     C
    C   1.0     0.610743     0.000000     0.593085  Biso 1.000000     C
    C   1.0     0.064040     0.043432     0.610105  Biso 1.000000     C
    C   1.0     0.566684     0.043432     0.610112  Biso 1.000000     C
    C   1.0    -0.002645     0.023728     0.612622  Biso 1.000000     C
    C   1.0     0.499998     0.023729     0.612627  Biso 1.000000     C
    C   1.0     0.477785     0.968494     0.600067  Biso 1.000000     C
    C   1.0     0.980419     0.968493     0.600059  Biso 1.000000     C
    C   1.0     0.020002     0.905309     0.586675  Biso 1.000000     C
    C   1.0     0.522647     0.905308     0.586681  Biso 1.000000     C
    C   1.0     0.085880     0.925400     0.580948  Biso 1.000000     C
    C   1.0     0.588526     0.925401     0.580956  Biso 1.000000     C
    C   1.0     0.453342     0.092484     0.630980  Biso 1.000000     C
    C   1.0     0.955982     0.092483     0.630977  Biso 1.000000     C
    C   1.0    -0.000013     0.818027     0.585680  Biso 1.000000     C
    C   1.0     0.502633     0.818027     0.585687  Biso 1.000000     C
    C   1.0     0.471973     0.324508     0.225048  Biso 1.000000     C
    C   1.0     0.974617     0.324506     0.225046  Biso 1.000000     C
    C   1.0     0.416547     0.350758     0.165922  Biso 1.000000     C
    C   1.0     0.919192     0.350756     0.165921  Biso 1.000000     C
    C   1.0     0.352390     0.370913     0.180451  Biso 1.000000     C
    C   1.0     0.855036     0.370913     0.180450  Biso 1.000000     C
    C   1.0     0.297474     0.384880     0.122027  Biso 1.000000     C
    C   1.0     0.800121     0.384880     0.122026  Biso 1.000000     C
    C   1.0     0.306710     0.378527     0.047135  Biso 1.000000     C
    C   1.0     0.809357     0.378527     0.047134  Biso 1.000000     C
    C   1.0     0.371397     0.362989     0.034542  Biso 1.000000     C
    C   1.0     0.874044     0.362992     0.034542  Biso 1.000000     C
    C   1.0     0.425947     0.348721     0.093470  Biso 1.000000     C
    C   1.0     0.928594     0.348723     0.093470  Biso 1.000000     C
    C   1.0     0.213306     0.407660     0.198211  Biso 1.000000     C
    C   1.0     0.715953     0.407660     0.198210  Biso 1.000000     C
    C   1.0     0.175776     0.485448     0.216746  Biso 1.000000     C
    C   1.0     0.678424     0.485448     0.216746  Biso 1.000000     C
    C   1.0     0.107230     0.482753     0.219797  Biso 1.000000     C
    C   1.0     0.609878     0.482752     0.219798  Biso 1.000000     C
    C   1.0     0.076577     0.557747     0.239406  Biso 1.000000     C
    C   1.0     0.579224     0.557747     0.239407  Biso 1.000000     C
    C   1.0     0.176301     0.635473     0.251391  Biso 1.000000     C
    C   1.0     0.678948     0.635473     0.251392  Biso 1.000000     C
    C   1.0     0.210520     0.563837     0.232749  Biso 1.000000     C
    C   1.0     0.713167     0.563837     0.232750  Biso 1.000000     C
    C   1.0     0.255761     0.382161     0.936558  Biso 1.000000     C
    C   1.0     0.758408     0.382161     0.936557  Biso 1.000000     C
    C   1.0     0.182711     0.366572     0.883528  Biso 1.000000     C
    C   1.0     0.685357     0.366572     0.883528  Biso 1.000000     C
    C   1.0     0.170085     0.329537     0.802669  Biso 1.000000     C
    C   1.0     0.672731     0.329536     0.802668  Biso 1.000000     C
    C   1.0     0.102221     0.314557     0.754531  Biso 1.000000     C
    C   1.0     0.604866     0.314556     0.754531  Biso 1.000000     C
    C   1.0     0.059325     0.368941     0.860516  Biso 1.000000     C
    C   1.0     0.561972     0.368940     0.860515  Biso 1.000000     C
    C   1.0     0.125554     0.386617     0.912469  Biso 1.000000     C
    C   1.0     0.628201     0.386616     0.912469  Biso 1.000000     C
    C   1.0     0.392745     0.529141     0.436292  Biso 1.000000     C
    C   1.0     0.895390     0.529141     0.436294  Biso 1.000000     C
    C   1.0     0.319863     0.553417     0.431788  Biso 1.000000     C
    C   1.0     0.822510     0.553418     0.431793  Biso 1.000000     C
    C   1.0     0.267050     0.490508     0.415081  Biso 1.000000     C
    C   1.0     0.769696     0.490508     0.415085  Biso 1.000000     C
    C   1.0     0.199113     0.510277     0.412521  Biso 1.000000     C
    C   1.0     0.701759     0.510276     0.412523  Biso 1.000000     C
    C   1.0     0.183423     0.593968     0.424724  Biso 1.000000     C
    C   1.0     0.686070     0.593968     0.424727  Biso 1.000000     C
    C   1.0     0.235000     0.657068     0.437918  Biso 1.000000     C
    C   1.0     0.737646     0.657069     0.437920  Biso 1.000000     C
    C   1.0     0.303727     0.636907     0.443665  Biso 1.000000     C
    C   1.0     0.806374     0.636908     0.443668  Biso 1.000000     C
    C   1.0     0.143356     0.441527     0.394494  Biso 1.000000     C
    C   1.0     0.646001     0.441527     0.394495  Biso 1.000000     C
    C   1.0     0.215611     0.744389     0.438930  Biso 1.000000     C
    C   1.0     0.718258     0.744390     0.438932  Biso 1.000000     C
    N   1.0     0.343597     0.847919     0.782522  Biso 1.000000     N
    N   1.0     0.846244     0.847919     0.782522  Biso 1.000000     N
    N   1.0     0.018045     0.119113     0.255237  Biso 1.000000     N
    N   1.0     0.520683     0.119113     0.255235  Biso 1.000000     N
    N   1.0     0.460375     0.714269     0.242291  Biso 1.000000     N
    N   1.0     0.963021     0.714269     0.242291  Biso 1.000000     N
    N   1.0     0.397464     0.414796     0.770280  Biso 1.000000     N
    N   1.0     0.900111     0.414797     0.770279  Biso 1.000000     N
    N   1.0     0.163914     0.200147     0.242446  Biso 1.000000     N
    N   1.0     0.666561     0.200151     0.242446  Biso 1.000000     N
    N   1.0     0.489468     0.928942     0.769713  Biso 1.000000     N
    N   1.0     0.992106     0.928943     0.769712  Biso 1.000000     N
    N   1.0     0.047122     0.333784     0.782670  Biso 1.000000     N
    N   1.0     0.549767     0.333783     0.782669  Biso 1.000000     N
    N   1.0     0.110029     0.633258     0.254682  Biso 1.000000     N
    N   1.0     0.612675     0.633258     0.254681  Biso 1.000000     N
    O   1.0     0.187643     0.831896     0.286627  Biso 1.000000     O
    O   1.0     0.690290     0.831898     0.286627  Biso 1.000000     O
    O   1.0     0.078699     0.820011     0.208664  Biso 1.000000     O
    O   1.0     0.581345     0.820012     0.208666  Biso 1.000000     O
    O   1.0     0.334163     0.918157     0.126798  Biso 1.000000     O
    O   1.0     0.836811     0.918145     0.126795  Biso 1.000000     O
    O   1.0     0.253901     0.924536     0.000000  Biso 1.000000     O
    O   1.0     0.756549     0.924535     0.000000  Biso 1.000000     O
    O   1.0     0.308902     0.965164     0.408494  Biso 1.000000     O
    O   1.0     0.811548     0.965161     0.408499  Biso 1.000000     O
    O   1.0     0.292706     0.070831     0.465303  Biso 1.000000     O
    O   1.0     0.795350     0.070829     0.465306  Biso 1.000000     O
    O   1.0     0.027133     0.880547     0.373714  Biso 1.000000     O
    O   1.0     0.529772     0.880547     0.373708  Biso 1.000000     O
    O   1.0     0.116090     0.977796     0.398394  Biso 1.000000     O
    O   1.0     0.618730     0.977795     0.398389  Biso 1.000000     O
    O   1.0     0.062877     0.244734     0.427103  Biso 1.000000     O
    O   1.0     0.565512     0.244731     0.427095  Biso 1.000000     O
    O   1.0     0.464324     0.284866     0.449481  Biso 1.000000     O
    O   1.0     0.966972     0.284868     0.449491  Biso 1.000000     O
    O   1.0     0.048168     0.730672     0.737955  Biso 1.000000     O
    O   1.0     0.550812     0.730668     0.737953  Biso 1.000000     O
    O   1.0     0.481152     0.742519     0.816222  Biso 1.000000     O
    O   1.0     0.983787     0.742521     0.816222  Biso 1.000000     O
    O   1.0     0.275157     0.644639     0.897428  Biso 1.000000     O
    O   1.0     0.777803     0.644641     0.897428  Biso 1.000000     O
    O   1.0     0.253458     0.641061     0.008527  Biso 1.000000     O
    O   1.0     0.756104     0.641061     0.008527  Biso 1.000000     O
    O   1.0     0.109193     0.597221     0.616791  Biso 1.000000     O
    O   1.0     0.611835     0.597222     0.616785  Biso 1.000000     O
    O   1.0     0.064184     0.463185     0.559735  Biso 1.000000     O
    O   1.0     0.566829     0.463184     0.559729  Biso 1.000000     O
    O   1.0     0.347036     0.681568     0.649945  Biso 1.000000     O
    O   1.0     0.849680     0.681568     0.649939  Biso 1.000000     O
    O   1.0     0.423990     0.584387     0.626551  Biso 1.000000     O
    O   1.0     0.926634     0.584386     0.626545  Biso 1.000000     O
    O   1.0     0.355970     0.288887     0.598367  Biso 1.000000     O
    O   1.0     0.858617     0.288886     0.598362  Biso 1.000000     O
    O   1.0     0.243527     0.248785     0.575448  Biso 1.000000     O
    O   1.0     0.746174     0.248784     0.575442  Biso 1.000000     O
    O   1.0     0.319853     0.216163     0.738344  Biso 1.000000     O
    O   1.0     0.822500     0.216163     0.738343  Biso 1.000000     O
    O   1.0     0.428803     0.228055     0.816295  Biso 1.000000     O
    O   1.0     0.931450     0.228053     0.816295  Biso 1.000000     O
    O   1.0     0.173356     0.129905     0.898188  Biso 1.000000     O
    O   1.0     0.676003     0.129902     0.898188  Biso 1.000000     O
    O   1.0     0.253623     0.123534     0.008376  Biso 1.000000     O
    O   1.0     0.756271     0.123533     0.008376  Biso 1.000000     O
    O   1.0     0.198599     0.082903     0.616463  Biso 1.000000     O
    O   1.0     0.701240     0.082905     0.616457  Biso 1.000000     O
    O   1.0     0.214800     0.977241     0.559650  Biso 1.000000     O
    O   1.0     0.717438     0.977241     0.559645  Biso 1.000000     O
    O   1.0     0.480377     0.167517     0.651249  Biso 1.000000     O
    O   1.0     0.983021     0.167516     0.651256  Biso 1.000000     O
    O   1.0     0.391415     0.070276     0.626564  Biso 1.000000     O
    O   1.0     0.894057     0.070277     0.626572  Biso 1.000000     O
    O   1.0     0.444635     0.803337     0.597858  Biso 1.000000     O
    O   1.0     0.947274     0.803339     0.597858  Biso 1.000000     O
    O   1.0     0.043184     0.763200     0.575480  Biso 1.000000     O
    O   1.0     0.545823     0.763197     0.575473  Biso 1.000000     O
    O   1.0     0.459332     0.317395     0.287004  Biso 1.000000     O
    O   1.0     0.961976     0.317394     0.287002  Biso 1.000000     O
    O   1.0     0.026356     0.305550     0.208734  Biso 1.000000     O
    O   1.0     0.528992     0.305549     0.208734  Biso 1.000000     O
    O   1.0     0.232343     0.403434     0.127538  Biso 1.000000     O
    O   1.0     0.734989     0.403436     0.127537  Biso 1.000000     O
    O   1.0     0.254039     0.407012     0.000000  Biso 1.000000     O
    O   1.0     0.756686     0.407012     0.000000  Biso 1.000000     O
    O   1.0     0.398310     0.450845     0.408166  Biso 1.000000     O
    O   1.0     0.900952     0.450846     0.408162  Biso 1.000000     O
    O   1.0     0.443310     0.584888     0.465217  Biso 1.000000     O
    O   1.0     0.945956     0.584887     0.465212  Biso 1.000000     O
    O   1.0     0.160460     0.366500     0.375026  Biso 1.000000     O
    O   1.0     0.663105     0.366499     0.375023  Biso 1.000000     O
    O   1.0     0.083507     0.463687     0.398405  Biso 1.000000     O
    O   1.0     0.586151     0.463686     0.398402  Biso 1.000000     O
    O   1.0     0.151533     0.759185     0.426599  Biso 1.000000     O
    O   1.0     0.654179     0.759185     0.426595  Biso 1.000000     O
    O   1.0     0.263976     0.799278     0.449513  Biso 1.000000     O
    O   1.0     0.766622     0.799277     0.449510  Biso 1.000000     O
   Cd   1.0     0.215826     0.917455     0.431710  Biso 1.000000    Cd
   Cd   1.0     0.718469     0.917455     0.431709  Biso 1.000000    Cd
   Cd   1.0     0.424895     0.793710     0.711582  Biso 1.000000    Cd
   Cd   1.0     0.927537     0.793711     0.711581  Biso 1.000000    Cd
   Cd   1.0     0.507142     0.644913     0.593471  Biso 1.000000    Cd
   Cd   1.0     0.000000     0.644915     0.593470  Biso 1.000000    Cd
   Cd   1.0     0.074622     0.768374     0.312837  Biso 1.000000    Cd
   Cd   1.0     0.577263     0.768373     0.312835  Biso 1.000000    Cd
   Cd   1.0     0.291675     0.130606     0.593244  Biso 1.000000    Cd
   Cd   1.0     0.794318     0.130606     0.593244  Biso 1.000000    Cd
   Cd   1.0     0.082611     0.254351     0.313373  Biso 1.000000    Cd
   Cd   1.0     0.585252     0.254352     0.313370  Biso 1.000000    Cd
   Cd   1.0     0.000362     0.403148     0.431481  Biso 1.000000    Cd
   Cd   1.0     0.503003     0.403149     0.431478  Biso 1.000000    Cd
   Cd   1.0     0.432880     0.279684     0.712124  Biso 1.000000    Cd
   Cd   1.0     0.935521     0.279683     0.712121  Biso 1.000000    Cd
