#======================================================================

# CRYSTAL DATA

#----------------------------------------------------------------------

data_VESTA_phase_1


_pd_phase_name                         MOF
_cell_length_a                         15.08400
_cell_length_b                         12.45500
_cell_length_c                         25.54100
_cell_angle_alpha                      70.80100
_cell_angle_beta                       81.47300
_cell_angle_gamma                      72.34500
_symmetry_space_group_name_H-M         "P 1"
_symmetry_Int_Tables_number            1

loop_
_symmetry_equiv_pos_as_xyz
   "x, y, z"

loop_
   _atom_site_label
   _atom_site_occupancy
   _atom_site_fract_x
   _atom_site_fract_y
   _atom_site_fract_z
   _atom_site_adp_type
   _atom_site_B_iso_or_equiv
   _atom_site_type_symbol
    H   1.0     0.206297     0.971487     0.846100  Biso 1.000000     H
    H   1.0     0.706334     0.971437     0.846089  Biso 1.000000     H
    H   1.0     0.304350     0.054785     0.766354  Biso 1.000000     H
    H   1.0     0.804375     0.054770     0.766345  Biso 1.000000     H
    H   1.0     0.065921     0.197493     0.664670  Biso 1.000000     H
    H   1.0     0.565954     0.197383     0.664656  Biso 1.000000     H
    H   1.0     0.468926     0.113689     0.746005  Biso 1.000000     H
    H   1.0     0.968883     0.113825     0.746018  Biso 1.000000     H
    H   1.0     0.378043     0.043802     0.684921  Biso 1.000000     H
    H   1.0     0.878076     0.043787     0.684910  Biso 1.000000     H
    H   1.0     0.478362     0.142550     0.610746  Biso 1.000000     H
    H   1.0     0.978385     0.142573     0.610743  Biso 1.000000     H
    H   1.0     0.240310     0.435750     0.552424  Biso 1.000000     H
    H   1.0     0.740305     0.435745     0.552431  Biso 1.000000     H
    H   1.0     0.139588     0.337604     0.624881  Biso 1.000000     H
    H   1.0     0.639595     0.337548     0.624877  Biso 1.000000     H
    H   1.0     0.354935     0.874469     0.896629  Biso 1.000000     H
    H   1.0     0.854833     0.874582     0.896630  Biso 1.000000     H
    H   1.0     0.272581     0.725416     0.898576  Biso 1.000000     H
    H   1.0     0.772485     0.725533     0.898566  Biso 1.000000     H
    H   1.0     0.405137     0.504825     0.051250  Biso 1.000000     H
    H   1.0     0.905148     0.504841     0.051193  Biso 1.000000     H
    H   1.0     0.476551     0.665301     0.044673  Biso 1.000000     H
    H   1.0     0.976541     0.665324     0.044636  Biso 1.000000     H
    H   1.0     0.343154     0.419375     0.984238  Biso 1.000000     H
    H   1.0     0.843129     0.419460     0.984150  Biso 1.000000     H
    H   1.0     0.263024     0.523724     0.935731  Biso 1.000000     H
    H   1.0     0.762920     0.523852     0.935700  Biso 1.000000     H
    H   1.0     0.114895     0.530723     0.652016  Biso 1.000000     H
    H   1.0     0.614874     0.530730     0.651985  Biso 1.000000     H
    H   1.0     0.214692     0.447436     0.731716  Biso 1.000000     H
    H   1.0     0.714662     0.447443     0.731693  Biso 1.000000     H
    H   1.0     0.496699     0.304765     0.833446  Biso 1.000000     H
    H   1.0     0.996709     0.304863     0.833498  Biso 1.000000     H
    H   1.0     0.398585     0.388283     0.752119  Biso 1.000000     H
    H   1.0     0.898576     0.388388     0.752181  Biso 1.000000     H
    H   1.0     0.242379     0.458034     0.813217  Biso 1.000000     H
    H   1.0     0.742305     0.458041     0.813187  Biso 1.000000     H
    H   1.0     0.355057     0.358868     0.887298  Biso 1.000000     H
    H   1.0     0.854955     0.358930     0.887285  Biso 1.000000     H
    H   1.0     0.234307     0.065918     0.945472  Biso 1.000000     H
    H   1.0     0.734249     0.065938     0.945461  Biso 1.000000     H
    H   1.0     0.120642     0.164474     0.873147  Biso 1.000000     H
    H   1.0     0.620616     0.164444     0.873116  Biso 1.000000     H
    H   1.0     0.240618     0.626101     0.601315  Biso 1.000000     H
    H   1.0     0.740663     0.626275     0.601392  Biso 1.000000     H
    H   1.0     0.084485     0.774933     0.599515  Biso 1.000000     H
    H   1.0     0.584547     0.775152     0.599575  Biso 1.000000     H
    H   1.0     0.183175     0.996558     0.447189  Biso 1.000000     H
    H   1.0     0.683171     0.996514     0.447137  Biso 1.000000     H
    H   1.0     0.331712     0.836211     0.453554  Biso 1.000000     H
    H   1.0     0.831695     0.836142     0.453529  Biso 1.000000     H
    H   1.0     0.044765     0.081266     0.514478  Biso 1.000000     H
    H   1.0     0.544812     0.081372     0.514449  Biso 1.000000     H
    H   1.0     0.492291     0.976697     0.562470  Biso 1.000000     H
    H   1.0     0.992259     0.976558     0.562482  Biso 1.000000     H
    H   1.0     0.294093     0.030226     0.151825  Biso 1.000000     H
    H   1.0     0.794082     0.030216     0.151832  Biso 1.000000     H
    H   1.0     0.196075     0.946798     0.231549  Biso 1.000000     H
    H   1.0     0.696069     0.946785     0.231558  Biso 1.000000     H
    H   1.0     0.434454     0.804274     0.333255  Biso 1.000000     H
    H   1.0     0.934450     0.804279     0.333262  Biso 1.000000     H
    H   1.0     0.031490     0.887902     0.251913  Biso 1.000000     H
    H   1.0     0.531502     0.887890     0.251909  Biso 1.000000     H
    H   1.0     0.122321     0.957791     0.312984  Biso 1.000000     H
    H   1.0     0.622319     0.957789     0.312993  Biso 1.000000     H
    H   1.0     0.022010     0.859070     0.387171  Biso 1.000000     H
    H   1.0     0.522006     0.859052     0.387173  Biso 1.000000     H
    H   1.0     0.260072     0.565916     0.445527  Biso 1.000000     H
    H   1.0     0.760063     0.565889     0.445521  Biso 1.000000     H
    H   1.0     0.360795     0.664059     0.373074  Biso 1.000000     H
    H   1.0     0.860792     0.664049     0.373078  Biso 1.000000     H
    H   1.0     0.145910     0.126258     0.101130  Biso 1.000000     H
    H   1.0     0.646058     0.126157     0.101109  Biso 1.000000     H
    H   1.0     0.228285     0.275196     0.099316  Biso 1.000000     H
    H   1.0     0.728419     0.275113     0.099282  Biso 1.000000     H
    H   1.0     0.095265     0.496533     0.946880  Biso 1.000000     H
    H   1.0     0.595217     0.496525     0.946913  Biso 1.000000     H
    H   1.0     0.023904     0.336109     0.953284  Biso 1.000000     H
    H   1.0     0.523893     0.336066     0.953317  Biso 1.000000     H
    H   1.0     0.157512     0.581554     0.013883  Biso 1.000000     H
    H   1.0     0.657517     0.581504     0.013921  Biso 1.000000     H
    H   1.0     0.237630     0.477086     0.062378  Biso 1.000000     H
    H   1.0     0.737718     0.477016     0.062363  Biso 1.000000     H
    H   1.0     0.385223     0.470710     0.346018  Biso 1.000000     H
    H   1.0     0.885251     0.470698     0.346039  Biso 1.000000     H
    H   1.0     0.285403     0.554035     0.266320  Biso 1.000000     H
    H   1.0     0.785435     0.553990     0.266340  Biso 1.000000     H
    H   1.0     0.003380     0.696683     0.164570  Biso 1.000000     H
    H   1.0     0.503374     0.696697     0.164556  Biso 1.000000     H
    H   1.0     0.101539     0.613093     0.245877  Biso 1.000000     H
    H   1.0     0.601531     0.613076     0.245866  Biso 1.000000     H
    H   1.0     0.257868     0.543237     0.184839  Biso 1.000000     H
    H   1.0     0.757896     0.543178     0.184863  Biso 1.000000     H
    H   1.0     0.145244     0.642206     0.110724  Biso 1.000000     H
    H   1.0     0.645284     0.642124     0.110740  Biso 1.000000     H
    H   1.0     0.265880     0.935271     0.052474  Biso 1.000000     H
    H   1.0     0.765896     0.935210     0.052486  Biso 1.000000     H
    H   1.0     0.379450     0.836909     0.124869  Biso 1.000000     H
    H   1.0     0.879456     0.836874     0.124891  Biso 1.000000     H
    H   1.0     0.259777     0.375238     0.396673  Biso 1.000000     H
    H   1.0     0.759717     0.375111     0.396628  Biso 1.000000     H
    H   1.0     0.415943     0.226457     0.398596  Biso 1.000000     H
    H   1.0     0.915873     0.226301     0.398549  Biso 1.000000     H
    H   1.0     0.317175     0.005131     0.550992  Biso 1.000000     H
    H   1.0     0.817171     0.005142     0.551029  Biso 1.000000     H
    H   1.0     0.168602     0.165451     0.544506  Biso 1.000000     H
    H   1.0     0.668606     0.165472     0.544530  Biso 1.000000     H
    H   1.0     0.455629     0.920238     0.483713  Biso 1.000000     H
    H   1.0     0.955591     0.920166     0.483708  Biso 1.000000     H
    H   1.0     0.008114     0.024850     0.435711  Biso 1.000000     H
    H   1.0     0.508143     0.024925     0.435701  Biso 1.000000     H
    C   1.0     0.021358     0.990121     0.850921  Biso 1.000000     C
    C   1.0     0.521408     0.990019     0.850909  Biso 1.000000     C
    C   1.0     0.081609     0.035433     0.801166  Biso 1.000000     C
    C   1.0     0.581654     0.035333     0.801151  Biso 1.000000     C
    C   1.0     0.176700     0.000000     0.805804  Biso 1.000000     C
    C   1.0     0.676739     0.000000     0.805792  Biso 1.000000     C
    C   1.0     0.231736     0.065202     0.760463  Biso 1.000000     C
    C   1.0     0.731767     0.065160     0.760453  Biso 1.000000     C
    C   1.0     0.193144     0.130536     0.708663  Biso 1.000000     C
    C   1.0     0.693176     0.130467     0.708651  Biso 1.000000     C
    C   1.0     0.097716     0.146667     0.704174  Biso 1.000000     C
    C   1.0     0.597752     0.146574     0.704161  Biso 1.000000     C
    C   1.0     0.042927     0.099510     0.749595  Biso 1.000000     C
    C   1.0     0.542970     0.099397     0.749581  Biso 1.000000     C
    C   1.0     0.251371     0.184171     0.661473  Biso 1.000000     C
    C   1.0     0.751393     0.184132     0.661464  Biso 1.000000     C
    C   1.0     0.347509     0.129827     0.655920  Biso 1.000000     C
    C   1.0     0.847536     0.129813     0.655911  Biso 1.000000     C
    C   1.0     0.404022     0.184691     0.614312  Biso 1.000000     C
    C   1.0     0.904041     0.184700     0.614308  Biso 1.000000     C
    C   1.0     0.366624     0.296817     0.577451  Biso 1.000000     C
    C   1.0     0.866631     0.296831     0.577452  Biso 1.000000     C
    C   1.0     0.270474     0.349726     0.581382  Biso 1.000000     C
    C   1.0     0.770477     0.349716     0.581383  Biso 1.000000     C
    C   1.0     0.213632     0.293310     0.622120  Biso 1.000000     C
    C   1.0     0.713643     0.293274     0.622116  Biso 1.000000     C
    C   1.0     0.428277     0.361188     0.536837  Biso 1.000000     C
    C   1.0     0.928282     0.361225     0.536847  Biso 1.000000     C
    C   1.0     0.361708     0.791929     0.930399  Biso 1.000000     C
    C   1.0     0.861628     0.792023     0.930390  Biso 1.000000     C
    C   1.0     0.318038     0.707516     0.931660  Biso 1.000000     C
    C   1.0     0.817966     0.707609     0.931641  Biso 1.000000     C
    C   1.0     0.333638     0.600468     0.974587  Biso 1.000000     C
    C   1.0     0.833594     0.600536     0.974553  Biso 1.000000     C
    C   1.0     0.391003     0.585581     0.016355  Biso 1.000000     C
    C   1.0     0.890989     0.585619     0.016311  Biso 1.000000     C
    C   1.0     0.431504     0.673896     0.013094  Biso 1.000000     C
    C   1.0     0.931478     0.673938     0.013061  Biso 1.000000     C
    C   1.0     0.290181     0.505401     0.976328  Biso 1.000000     C
    C   1.0     0.790141     0.505470     0.976286  Biso 1.000000     C
    C   1.0     0.441805     0.511724     0.647132  Biso 1.000000     C
    C   1.0     0.941802     0.511768     0.647176  Biso 1.000000     C
    C   1.0     0.499686     0.466711     0.696924  Biso 1.000000     C
    C   1.0     0.999690     0.466756     0.696968  Biso 1.000000     C
    C   1.0     0.088715     0.483550     0.692321  Biso 1.000000     C
    C   1.0     0.588701     0.483534     0.692287  Biso 1.000000     C
    C   1.0     0.144327     0.437047     0.737640  Biso 1.000000     C
    C   1.0     0.644305     0.437028     0.737610  Biso 1.000000     C
    C   1.0     0.112519     0.371696     0.789459  Biso 1.000000     C
    C   1.0     0.612493     0.371654     0.789422  Biso 1.000000     C
    C   1.0     0.022876     0.355653     0.793981  Biso 1.000000     C
    C   1.0     0.522862     0.355579     0.793934  Biso 1.000000     C
    C   1.0     0.467239     0.402669     0.748520  Biso 1.000000     C
    C   1.0     0.967241     0.402749     0.748572  Biso 1.000000     C
    C   1.0     0.174022     0.317869     0.836614  Biso 1.000000     C
    C   1.0     0.673979     0.317850     0.836582  Biso 1.000000     C
    C   1.0     0.240320     0.371976     0.842165  Biso 1.000000     C
    C   1.0     0.740254     0.371984     0.842140  Biso 1.000000     C
    C   1.0     0.303507     0.316885     0.883729  Biso 1.000000     C
    C   1.0     0.803423     0.316925     0.883713  Biso 1.000000     C
    C   1.0     0.303732     0.204723     0.920542  Biso 1.000000     C
    C   1.0     0.803650     0.204770     0.920533  Biso 1.000000     C
    C   1.0     0.235944     0.152001     0.916581  Biso 1.000000     C
    C   1.0     0.735886     0.152017     0.916566  Biso 1.000000     C
    C   1.0     0.171209     0.208641     0.875899  Biso 1.000000     C
    C   1.0     0.671169     0.208627     0.875873  Biso 1.000000     C
    C   1.0     0.377325     0.140072     0.961107  Biso 1.000000     C
    C   1.0     0.877220     0.140166     0.961116  Biso 1.000000     C
    C   1.0     0.222951     0.708784     0.567632  Biso 1.000000     C
    C   1.0     0.722988     0.708913     0.567683  Biso 1.000000     C
    C   1.0     0.137599     0.793103     0.566475  Biso 1.000000     C
    C   1.0     0.637646     0.793254     0.566514  Biso 1.000000     C
    C   1.0     0.121099     0.900346     0.523674  Biso 1.000000     C
    C   1.0     0.621129     0.900437     0.523674  Biso 1.000000     C
    C   1.0     0.192001     0.915597     0.481968  Biso 1.000000     C
    C   1.0     0.692010     0.915605     0.481947  Biso 1.000000     C
    C   1.0     0.275107     0.827351     0.485111  Biso 1.000000     C
    C   1.0     0.775107     0.827343     0.485102  Biso 1.000000     C
    C   1.0     0.030897     0.995369     0.521996  Biso 1.000000     C
    C   1.0     0.530935     0.995474     0.521984  Biso 1.000000     C
    C   1.0     0.479083     0.011507     0.146965  Biso 1.000000     C
    C   1.0     0.979066     0.011523     0.146970  Biso 1.000000     C
    C   1.0     0.418793     0.966305     0.196746  Biso 1.000000     C
    C   1.0     0.918782     0.966307     0.196751  Biso 1.000000     C
    C   1.0     0.323699    -0.016977     0.192117  Biso 1.000000     C
    C   1.0     0.823689    -0.016987     0.192125  Biso 1.000000     C
    C   1.0     0.268672     0.936443     0.237450  Biso 1.000000     C
    C   1.0     0.768665     0.936435     0.237459  Biso 1.000000     C
    C   1.0     0.307243     0.871120     0.289257  Biso 1.000000     C
    C   1.0     0.807240     0.871115     0.289265  Biso 1.000000     C
    C   1.0     0.402660     0.855061     0.293747  Biso 1.000000     C
    C   1.0     0.902656     0.855063     0.293753  Biso 1.000000     C
    C   1.0     0.457454     0.902223     0.248325  Biso 1.000000     C
    C   1.0     0.957447     0.902226     0.248329  Biso 1.000000     C
    C   1.0     0.249017     0.817483     0.336458  Biso 1.000000     C
    C   1.0     0.749015     0.817474     0.336464  Biso 1.000000     C
    C   1.0     0.152864     0.871777     0.341989  Biso 1.000000     C
    C   1.0     0.652862     0.871770     0.341995  Biso 1.000000     C
    C   1.0     0.096354     0.816937     0.383609  Biso 1.000000     C
    C   1.0     0.596349     0.816921     0.383609  Biso 1.000000     C
    C   1.0     0.133749     0.704831     0.420486  Biso 1.000000     C
    C   1.0     0.633743     0.704808     0.420481  Biso 1.000000     C
    C   1.0     0.229902     0.651927     0.416559  Biso 1.000000     C
    C   1.0     0.729895     0.651904     0.416556  Biso 1.000000     C
    C   1.0     0.286745     0.708338     0.375814  Biso 1.000000     C
    C   1.0     0.786741     0.708324     0.375818  Biso 1.000000     C
    C   1.0     0.072056     0.640486     0.461080  Biso 1.000000     C
    C   1.0     0.572045     0.640457     0.461067  Biso 1.000000     C
    C   1.0     0.139060     0.208919     0.067431  Biso 1.000000     C
    C   1.0     0.639169     0.208836     0.067418  Biso 1.000000     C
    C   1.0     0.182697     0.293297     0.066268  Biso 1.000000     C
    C   1.0     0.682795     0.293227     0.066251  Biso 1.000000     C
    C   1.0     0.167009     0.400488     0.023432  Biso 1.000000     C
    C   1.0     0.667050     0.400446     0.023432  Biso 1.000000     C
    C   1.0     0.109480     0.415641     0.981699  Biso 1.000000     C
    C   1.0     0.609478     0.415611     0.981718  Biso 1.000000     C
    C   1.0     0.069035     0.327340     0.984855  Biso 1.000000     C
    C   1.0     0.569051     0.327293     0.984876  Biso 1.000000     C
    C   1.0     0.210458     0.495509     0.021775  Biso 1.000000     C
    C   1.0     0.710486     0.495480     0.021772  Biso 1.000000     C
    C   1.0     0.058396     0.489390     0.350830  Biso 1.000000     C
    C   1.0     0.558377     0.489354     0.350818  Biso 1.000000     C
    C   1.0     0.000454     0.534631     0.301066  Biso 1.000000     C
    C   1.0     0.500436     0.534618     0.301051  Biso 1.000000     C
    C   1.0     0.411391     0.517875     0.305709  Biso 1.000000     C
    C   1.0     0.911417     0.517866     0.305729  Biso 1.000000     C
    C   1.0     0.355763     0.564439     0.260399  Biso 1.000000     C
    C   1.0     0.855791     0.564403     0.260420  Biso 1.000000     C
    C   1.0     0.387599     0.629753     0.208580  Biso 1.000000     C
    C   1.0     0.887616     0.629723     0.208599  Biso 1.000000     C
    C   1.0     0.477213     0.645876     0.204067  Biso 1.000000     C
    C   1.0     0.977225     0.645862     0.204081  Biso 1.000000     C
    C   1.0     0.032884     0.598711     0.249479  Biso 1.000000     C
    C   1.0     0.532872     0.598703     0.249466  Biso 1.000000     C
    C   1.0     0.326127     0.683494     0.161417  Biso 1.000000     C
    C   1.0     0.826146     0.683448     0.161436  Biso 1.000000     C
    C   1.0     0.259896     0.629287     0.155869  Biso 1.000000     C
    C   1.0     0.759923     0.629226     0.155891  Biso 1.000000     C
    C   1.0     0.196747     0.684266     0.114283  Biso 1.000000     C
    C   1.0     0.696780     0.684193     0.114301  Biso 1.000000     C
    C   1.0     0.196505     0.796407     0.077440  Biso 1.000000     C
    C   1.0     0.696539     0.796330     0.077455  Biso 1.000000     C
    C   1.0     0.264243     0.849216     0.081392  Biso 1.000000     C
    C   1.0     0.764262     0.849157     0.081409  Biso 1.000000     C
    C   1.0     0.328927     0.792691     0.122105  Biso 1.000000     C
    C   1.0     0.828941     0.792646     0.122124  Biso 1.000000     C
    C   1.0     0.122956     0.860955     0.036844  Biso 1.000000     C
    C   1.0     0.623009     0.860848     0.036849  Biso 1.000000     C
    C   1.0     0.277430     0.292635     0.430400  Biso 1.000000     C
    C   1.0     0.777384     0.292534     0.430370  Biso 1.000000     C
    C   1.0     0.362804     0.208337     0.431625  Biso 1.000000     C
    C   1.0     0.862752     0.208225     0.431597  Biso 1.000000     C
    C   1.0     0.379286     0.101170     0.474473  Biso 1.000000     C
    C   1.0     0.879252     0.101100     0.474472  Biso 1.000000     C
    C   1.0     0.308358     0.086019     0.516170  Biso 1.000000     C
    C   1.0     0.808343     0.085996     0.516187  Biso 1.000000     C
    C   1.0     0.225227     0.174250     0.512959  Biso 1.000000     C
    C   1.0     0.725216     0.174235     0.512969  Biso 1.000000     C
    C   1.0     0.469492     0.006142     0.476185  Biso 1.000000     C
    C   1.0     0.969456     0.006064     0.476191  Biso 1.000000     C
    N   1.0     0.418511     0.775079     0.970300  Biso 1.000000     N
    N   1.0     0.918453     0.775151     0.970283  Biso 1.000000     N
    N   1.0     0.291345     0.725944     0.527762  Biso 1.000000     N
    N   1.0     0.791360     0.725995     0.527787  Biso 1.000000     N
    N   1.0     0.082125     0.226001     0.027558  Biso 1.000000     N
    N   1.0     0.582196     0.225928     0.027564  Biso 1.000000     N
    N   1.0     0.209000     0.275563     0.470252  Biso 1.000000     N
    N   1.0     0.708975     0.275510     0.470242  Biso 1.000000     N
    O   1.0     0.063199     0.947224     0.897879  Biso 1.000000     O
    O   1.0     0.563287     0.947002     0.897858  Biso 1.000000     O
    O   1.0     0.438698     0.995940     0.846524  Biso 1.000000     O
    O   1.0     0.938663     0.996000     0.846529  Biso 1.000000     O
    O   1.0     0.396077     0.472103     0.513227  Biso 1.000000     O
    O   1.0     0.896073     0.472140     0.513243  Biso 1.000000     O
    O   1.0     0.011765     0.303141     0.526899  Biso 1.000000     O
    O   1.0     0.511758     0.303090     0.526890  Biso 1.000000     O
    O   1.0     0.485536     0.555384     0.600221  Biso 1.000000     O
    O   1.0     0.985534     0.555378     0.600255  Biso 1.000000     O
    O   1.0     0.360161     0.504762     0.651433  Biso 1.000000     O
    O   1.0     0.860145     0.504848     0.651489  Biso 1.000000     O
    O   1.0     0.388427     0.029229     0.984731  Biso 1.000000     O
    O   1.0     0.888346     0.029322     0.984753  Biso 1.000000     O
    O   1.0     0.427000     0.197904     0.970994  Biso 1.000000     O
    O   1.0     0.926857     0.198036     0.971010  Biso 1.000000     O
    O   1.0     0.437007     0.055368     0.100065  Biso 1.000000     O
    O   1.0     0.936984     0.055387     0.100073  Biso 1.000000     O
    O   1.0     0.062016     0.004653     0.151285  Biso 1.000000     O
    O   1.0     0.562038     0.004636     0.151279  Biso 1.000000     O
    O   1.0     0.104186     0.529555     0.484662  Biso 1.000000     O
    O   1.0     0.604165     0.529519     0.484639  Biso 1.000000     O
    O   1.0     0.488663     0.698697     0.471122  Biso 1.000000     O
    O   1.0     0.988672     0.698718     0.471133  Biso 1.000000     O
    O   1.0     0.014629     0.445822     0.397744  Biso 1.000000     O
    O   1.0     0.514636     0.445683     0.397723  Biso 1.000000     O
    O   1.0     0.140146     0.495990     0.346513  Biso 1.000000     O
    O   1.0     0.640113     0.496004     0.346509  Biso 1.000000     O
    O   1.0     0.111774     0.971802     0.013189  Biso 1.000000     O
    O   1.0     0.611818     0.971693     0.013181  Biso 1.000000     O
    O   1.0     0.073377     0.803073     0.026907  Biso 1.000000     O
    O   1.0     0.573460     0.802937     0.026906  Biso 1.000000     O
   Zn   1.0     0.486691     0.897965     0.964332  Biso 1.000000    Zn
   Zn   1.0     0.986581     0.898066     0.964334  Biso 1.000000    Zn
   Zn   1.0     0.418315     0.603435     0.533618  Biso 1.000000    Zn
   Zn   1.0     0.918327     0.603463     0.533637  Biso 1.000000    Zn
   Zn   1.0     0.013833     0.103251     0.033513  Biso 1.000000    Zn
   Zn   1.0     0.513919     0.103163     0.033523  Biso 1.000000    Zn
   Zn   1.0     0.082023     0.398110     0.464255  Biso 1.000000    Zn
   Zn   1.0     0.582003     0.398070     0.464240  Biso 1.000000    Zn
