#======================================================================

# CRYSTAL DATA

#----------------------------------------------------------------------

data_VESTA_phase_1


_pd_phase_name                         MOF
_cell_length_a                         18.06700
_cell_length_b                         20.61100
_cell_length_c                         18.88800
_cell_angle_alpha                      89.97800
_cell_angle_beta                       89.99300
_cell_angle_gamma                      90.02700
_symmetry_space_group_name_H-M         "P 1"
_symmetry_Int_Tables_number            1

loop_
_symmetry_equiv_pos_as_xyz
   "x, y, z"

loop_
   _atom_site_label
   _atom_site_occupancy
   _atom_site_fract_x
   _atom_site_fract_y
   _atom_site_fract_z
   _atom_site_adp_type
   _atom_site_B_iso_or_equiv
   _atom_site_type_symbol
    H   1.0     0.409876     0.472331     0.533490  Biso 1.000000     H
    H   1.0     0.409877     0.972339     0.533491  Biso 1.000000     H
    H   1.0     0.909884     0.472332     0.533491  Biso 1.000000     H
    H   1.0     0.909887     0.972339     0.533490  Biso 1.000000     H
    H   1.0     0.118309     0.190261     0.392232  Biso 1.000000     H
    H   1.0     0.118311     0.690267     0.392231  Biso 1.000000     H
    H   1.0     0.618318     0.190261     0.392231  Biso 1.000000     H
    H   1.0     0.618320     0.690268     0.392232  Biso 1.000000     H
    H   1.0     0.417337     0.152624     0.262649  Biso 1.000000     H
    H   1.0     0.417339     0.652631     0.262649  Biso 1.000000     H
    H   1.0     0.917346     0.152624     0.262648  Biso 1.000000     H
    H   1.0     0.917348     0.652631     0.262648  Biso 1.000000     H
    H   1.0     0.358768     0.098315     0.309002  Biso 1.000000     H
    H   1.0     0.358770     0.598323     0.309002  Biso 1.000000     H
    H   1.0     0.858777     0.098315     0.309002  Biso 1.000000     H
    H   1.0     0.858779     0.598323     0.309002  Biso 1.000000     H
    H   1.0     0.487648     0.341595     0.707586  Biso 1.000000     H
    H   1.0     0.487651     0.841602     0.707587  Biso 1.000000     H
    H   1.0     0.987657     0.341595     0.707586  Biso 1.000000     H
    H   1.0     0.987659     0.841602     0.707586  Biso 1.000000     H
    H   1.0     0.425321     0.263230     0.789533  Biso 1.000000     H
    H   1.0     0.425323     0.763238     0.789532  Biso 1.000000     H
    H   1.0     0.925330     0.263231     0.789532  Biso 1.000000     H
    H   1.0     0.925333     0.763238     0.789533  Biso 1.000000     H
    H   1.0     0.299859     0.409782     0.880488  Biso 1.000000     H
    H   1.0     0.299859     0.909789     0.880486  Biso 1.000000     H
    H   1.0     0.799867     0.409782     0.880486  Biso 1.000000     H
    H   1.0     0.799872     0.909790     0.880490  Biso 1.000000     H
    H   1.0     0.356439     0.493768     0.799879  Biso 1.000000     H
    H   1.0     0.356440     0.993775     0.799878  Biso 1.000000     H
    H   1.0     0.856447     0.493768     0.799878  Biso 1.000000     H
    H   1.0     0.856451     0.993776     0.799881  Biso 1.000000     H
    H   1.0     0.159894     0.027636     0.466465  Biso 1.000000     H
    H   1.0     0.159896     0.527643     0.466465  Biso 1.000000     H
    H   1.0     0.659904     0.027637     0.466466  Biso 1.000000     H
    H   1.0     0.659905     0.527643     0.466465  Biso 1.000000     H
    H   1.0     0.368228     0.309812     0.607686  Biso 1.000000     H
    H   1.0     0.368230     0.809819     0.607686  Biso 1.000000     H
    H   1.0     0.868237     0.309811     0.607686  Biso 1.000000     H
    H   1.0     0.868239     0.809818     0.607686  Biso 1.000000     H
    H   1.0     0.167299     0.347374     0.737343  Biso 1.000000     H
    H   1.0     0.167301     0.847382     0.737343  Biso 1.000000     H
    H   1.0     0.667308     0.347374     0.737343  Biso 1.000000     H
    H   1.0     0.667310     0.847381     0.737343  Biso 1.000000     H
    H   1.0     0.108749     0.401663     0.691002  Biso 1.000000     H
    H   1.0     0.108751     0.901670     0.691003  Biso 1.000000     H
    H   1.0     0.608758     0.401663     0.691003  Biso 1.000000     H
    H   1.0     0.608760     0.901671     0.691002  Biso 1.000000     H
    H   1.0     0.237577     0.158465     0.292469  Biso 1.000000     H
    H   1.0     0.237582     0.658472     0.292466  Biso 1.000000     H
    H   1.0     0.737587     0.158465     0.292468  Biso 1.000000     H
    H   1.0     0.737592     0.658472     0.292465  Biso 1.000000     H
    H   1.0     0.175249     0.236822     0.210590  Biso 1.000000     H
    H   1.0     0.175251     0.736830     0.210590  Biso 1.000000     H
    H   1.0     0.675257     0.236822     0.210590  Biso 1.000000     H
    H   1.0     0.675258     0.736830     0.210591  Biso 1.000000     H
    H   1.0     0.049850     0.090201     0.119518  Biso 1.000000     H
    H   1.0     0.049850     0.590209     0.119520  Biso 1.000000     H
    H   1.0     0.549857     0.090201     0.119520  Biso 1.000000     H
    H   1.0     0.549857     0.590209     0.119521  Biso 1.000000     H
    H   1.0     0.106407     0.006228     0.200071  Biso 1.000000     H
    H   1.0     0.106409     0.506236     0.200072  Biso 1.000000     H
    H   1.0     0.606415     0.006228     0.200072  Biso 1.000000     H
    H   1.0     0.606419     0.506235     0.200071  Biso 1.000000     H
    H   1.0     0.409593     0.277519     0.033671  Biso 1.000000     H
    H   1.0     0.409594     0.777526     0.033671  Biso 1.000000     H
    H   1.0     0.909603     0.277520     0.033670  Biso 1.000000     H
    H   1.0     0.909604     0.777526     0.033671  Biso 1.000000     H
    H   1.0     0.118497     0.060165     0.892499  Biso 1.000000     H
    H   1.0     0.118500     0.560174     0.892498  Biso 1.000000     H
    H   1.0     0.618507     0.060167     0.892498  Biso 1.000000     H
    H   1.0     0.618510     0.560175     0.892497  Biso 1.000000     H
    H   1.0     0.417446     0.097326     0.762853  Biso 1.000000     H
    H   1.0     0.417449     0.597334     0.762852  Biso 1.000000     H
    H   1.0     0.917455     0.097325     0.762853  Biso 1.000000     H
    H   1.0     0.917458     0.597334     0.762853  Biso 1.000000     H
    H   1.0     0.358781     0.151535     0.809155  Biso 1.000000     H
    H   1.0     0.358783     0.651542     0.809155  Biso 1.000000     H
    H   1.0     0.858790     0.151535     0.809155  Biso 1.000000     H
    H   1.0     0.858792     0.651542     0.809155  Biso 1.000000     H
    H   1.0     0.487781     0.408472     0.207685  Biso 1.000000     H
    H   1.0     0.487783     0.908480     0.207685  Biso 1.000000     H
    H   1.0     0.987791     0.408473     0.207686  Biso 1.000000     H
    H   1.0     0.987793     0.908480     0.207686  Biso 1.000000     H
    H   1.0     0.425496     0.486770     0.289598  Biso 1.000000     H
    H   1.0     0.425499     0.986778     0.289598  Biso 1.000000     H
    H   1.0     0.925504     0.486770     0.289596  Biso 1.000000     H
    H   1.0     0.925507     0.986778     0.289597  Biso 1.000000     H
    H   1.0     0.299923     0.340129     0.380571  Biso 1.000000     H
    H   1.0     0.299926     0.840136     0.380572  Biso 1.000000     H
    H   1.0     0.799930     0.340129     0.380569  Biso 1.000000     H
    H   1.0     0.799933     0.840137     0.380569  Biso 1.000000     H
    H   1.0     0.356448     0.256212     0.299976  Biso 1.000000     H
    H   1.0     0.356450     0.756219     0.299976  Biso 1.000000     H
    H   1.0     0.856458     0.256212     0.299976  Biso 1.000000     H
    H   1.0     0.856459     0.756219     0.299975  Biso 1.000000     H
    H   1.0     0.159591     0.222446     0.966359  Biso 1.000000     H
    H   1.0     0.159593     0.722453     0.966359  Biso 1.000000     H
    H   1.0     0.659601     0.222444     0.966360  Biso 1.000000     H
    H   1.0     0.659603     0.722453     0.966359  Biso 1.000000     H
    H   1.0     0.368624     0.439906     0.107442  Biso 1.000000     H
    H   1.0     0.368626     0.939914     0.107442  Biso 1.000000     H
    H   1.0     0.868632     0.439908     0.107441  Biso 1.000000     H
    H   1.0     0.868634     0.939915     0.107442  Biso 1.000000     H
    H   1.0     0.167475     0.402720     0.237101  Biso 1.000000     H
    H   1.0     0.167477     0.902727     0.237101  Biso 1.000000     H
    H   1.0     0.667484     0.402720     0.237101  Biso 1.000000     H
    H   1.0     0.667486     0.902727     0.237101  Biso 1.000000     H
    H   1.0     0.108806     0.348482     0.190796  Biso 1.000000     H
    H   1.0     0.108808     0.848489     0.190796  Biso 1.000000     H
    H   1.0     0.608815     0.348482     0.190796  Biso 1.000000     H
    H   1.0     0.608817     0.848489     0.190796  Biso 1.000000     H
    H   1.0     0.237644     0.091556     0.792365  Biso 1.000000     H
    H   1.0     0.237647     0.591563     0.792364  Biso 1.000000     H
    H   1.0     0.737657     0.091556     0.792362  Biso 1.000000     H
    H   1.0     0.737656     0.591564     0.792365  Biso 1.000000     H
    H   1.0     0.175382     0.013231     0.710415  Biso 1.000000     H
    H   1.0     0.175383     0.513239     0.710415  Biso 1.000000     H
    H   1.0     0.675389     0.013231     0.710416  Biso 1.000000     H
    H   1.0     0.675394     0.513239     0.710414  Biso 1.000000     H
    H   1.0     0.049981     0.159827     0.619373  Biso 1.000000     H
    H   1.0     0.049980     0.659834     0.619377  Biso 1.000000     H
    H   1.0     0.549984     0.159826     0.619379  Biso 1.000000     H
    H   1.0     0.549992     0.659835     0.619373  Biso 1.000000     H
    H   1.0     0.106490     0.243770     0.699992  Biso 1.000000     H
    H   1.0     0.106490     0.743777     0.699995  Biso 1.000000     H
    H   1.0     0.606497     0.243769     0.699996  Biso 1.000000     H
    H   1.0     0.606500     0.743777     0.699993  Biso 1.000000     H
    C   1.0     0.435235     0.010454     0.501983  Biso 1.000000     C
    C   1.0     0.435237     0.510461     0.501983  Biso 1.000000     C
    C   1.0     0.935244     0.010454     0.501983  Biso 1.000000     C
    C   1.0     0.935246     0.510462     0.501983  Biso 1.000000     C
    C   1.0     0.071658     0.157312     0.400385  Biso 1.000000     C
    C   1.0     0.071660     0.657318     0.400384  Biso 1.000000     C
    C   1.0     0.571667     0.157311     0.400385  Biso 1.000000     C
    C   1.0     0.571669     0.657319     0.400385  Biso 1.000000     C
    C   1.0     0.460247     0.118520     0.355423  Biso 1.000000     C
    C   1.0     0.460248     0.618528     0.355423  Biso 1.000000     C
    C   1.0     0.960256     0.118520     0.355423  Biso 1.000000     C
    C   1.0     0.960258     0.618527     0.355423  Biso 1.000000     C
    C   1.0     0.455676     0.078431     0.416236  Biso 1.000000     C
    C   1.0     0.455678     0.578439     0.416236  Biso 1.000000     C
    C   1.0     0.955685     0.078431     0.416236  Biso 1.000000     C
    C   1.0     0.955687     0.578438     0.416236  Biso 1.000000     C
    C   1.0     0.013926     0.082761     0.465440  Biso 1.000000     C
    C   1.0     0.013928     0.582768     0.465439  Biso 1.000000     C
    C   1.0     0.513935     0.082761     0.465440  Biso 1.000000     C
    C   1.0     0.513937     0.582768     0.465440  Biso 1.000000     C
    C   1.0     0.461747     0.472308     0.698293  Biso 1.000000     C
    C   1.0     0.461750     0.972316     0.698294  Biso 1.000000     C
    C   1.0     0.961757     0.472309     0.698294  Biso 1.000000     C
    C   1.0     0.961757     0.972315     0.698292  Biso 1.000000     C
    C   1.0     0.446239     0.358238     0.745222  Biso 1.000000     C
    C   1.0     0.446239     0.858245     0.745220  Biso 1.000000     C
    C   1.0     0.946246     0.358238     0.745220  Biso 1.000000     C
    C   1.0     0.946252     0.858246     0.745224  Biso 1.000000     C
    C   1.0     0.426588     0.423775     0.747775  Biso 1.000000     C
    C   1.0     0.426592     0.923783     0.747776  Biso 1.000000     C
    C   1.0     0.926597     0.423775     0.747774  Biso 1.000000     C
    C   1.0     0.926598     0.923782     0.747773  Biso 1.000000     C
    C   1.0     0.411814     0.314773     0.790516  Biso 1.000000     C
    C   1.0     0.411816     0.814781     0.790515  Biso 1.000000     C
    C   1.0     0.911822     0.314774     0.790516  Biso 1.000000     C
    C   1.0     0.911825     0.814781     0.790516  Biso 1.000000     C
    C   1.0     0.341144     0.396910     0.840874  Biso 1.000000     C
    C   1.0     0.341145     0.896916     0.840873  Biso 1.000000     C
    C   1.0     0.841152     0.396909     0.840873  Biso 1.000000     C
    C   1.0     0.841157     0.896918     0.840876  Biso 1.000000     C
    C   1.0     0.372725     0.443029     0.796546  Biso 1.000000     C
    C   1.0     0.372724     0.943035     0.796544  Biso 1.000000     C
    C   1.0     0.872731     0.443028     0.796544  Biso 1.000000     C
    C   1.0     0.872740     0.943037     0.796549  Biso 1.000000     C
    C   1.0     0.185228     0.489523     0.497973  Biso 1.000000     C
    C   1.0     0.185230     0.989530     0.497973  Biso 1.000000     C
    C   1.0     0.685237     0.489523     0.497973  Biso 1.000000     C
    C   1.0     0.685239     0.989531     0.497973  Biso 1.000000     C
    C   1.0     0.321587     0.342734     0.599543  Biso 1.000000     C
    C   1.0     0.321589     0.842742     0.599543  Biso 1.000000     C
    C   1.0     0.821596     0.342734     0.599542  Biso 1.000000     C
    C   1.0     0.821598     0.842741     0.599542  Biso 1.000000     C
    C   1.0     0.210201     0.381493     0.644548  Biso 1.000000     C
    C   1.0     0.210204     0.881500     0.644548  Biso 1.000000     C
    C   1.0     0.710211     0.381493     0.644548  Biso 1.000000     C
    C   1.0     0.710212     0.881500     0.644548  Biso 1.000000     C
    C   1.0     0.205637     0.421574     0.583732  Biso 1.000000     C
    C   1.0     0.205639     0.921581     0.583731  Biso 1.000000     C
    C   1.0     0.705646     0.421573     0.583731  Biso 1.000000     C
    C   1.0     0.705648     0.921581     0.583732  Biso 1.000000     C
    C   1.0     0.263875     0.417241     0.534495  Biso 1.000000     C
    C   1.0     0.263877     0.917248     0.534495  Biso 1.000000     C
    C   1.0     0.763884     0.417241     0.534495  Biso 1.000000     C
    C   1.0     0.763886     0.917248     0.534495  Biso 1.000000     C
    C   1.0     0.211668     0.027705     0.301694  Biso 1.000000     C
    C   1.0     0.211672     0.527712     0.301692  Biso 1.000000     C
    C   1.0     0.711678     0.027705     0.301693  Biso 1.000000     C
    C   1.0     0.711684     0.527711     0.301690  Biso 1.000000     C
    C   1.0     0.196179     0.141803     0.254822  Biso 1.000000     C
    C   1.0     0.196180     0.641810     0.254824  Biso 1.000000     C
    C   1.0     0.696187     0.141803     0.254823  Biso 1.000000     C
    C   1.0     0.696187     0.641810     0.254826  Biso 1.000000     C
    C   1.0     0.176543     0.076247     0.252231  Biso 1.000000     C
    C   1.0     0.176549     0.576254     0.252227  Biso 1.000000     C
    C   1.0     0.676553     0.076247     0.252230  Biso 1.000000     C
    C   1.0     0.676562     0.576252     0.252222  Biso 1.000000     C
    C   1.0     0.161751     0.185267     0.209563  Biso 1.000000     C
    C   1.0     0.161753     0.685274     0.209564  Biso 1.000000     C
    C   1.0     0.661760     0.185267     0.209564  Biso 1.000000     C
    C   1.0     0.661761     0.685274     0.209565  Biso 1.000000     C
    C   1.0     0.091116     0.103095     0.159146  Biso 1.000000     C
    C   1.0     0.091115     0.603103     0.159148  Biso 1.000000     C
    C   1.0     0.591123     0.103095     0.159147  Biso 1.000000     C
    C   1.0     0.591123     0.603104     0.159149  Biso 1.000000     C
    C   1.0     0.122692     0.056979     0.203443  Biso 1.000000     C
    C   1.0     0.122689     0.556987     0.203446  Biso 1.000000     C
    C   1.0     0.622698     0.056979     0.203445  Biso 1.000000     C
    C   1.0     0.622696     0.556988     0.203448  Biso 1.000000     C
    C   1.0     0.435008     0.239451     0.000000  Biso 1.000000     C
    C   1.0     0.435010     0.739458     0.000000  Biso 1.000000     C
    C   1.0     0.935018     0.239452     0.000000  Biso 1.000000     C
    C   1.0     0.935020     0.739459     0.000000  Biso 1.000000     C
    C   1.0     0.071744     0.092962     0.900640  Biso 1.000000     C
    C   1.0     0.071747     0.592971     0.900639  Biso 1.000000     C
    C   1.0     0.571754     0.092964     0.900638  Biso 1.000000     C
    C   1.0     0.571757     0.592972     0.900638  Biso 1.000000     C
    C   1.0     0.460268     0.131506     0.855631  Biso 1.000000     C
    C   1.0     0.460271     0.631514     0.855631  Biso 1.000000     C
    C   1.0     0.960277     0.131505     0.855632  Biso 1.000000     C
    C   1.0     0.960280     0.631514     0.855631  Biso 1.000000     C
    C   1.0     0.455597     0.171576     0.916415  Biso 1.000000     C
    C   1.0     0.455599     0.671584     0.916415  Biso 1.000000     C
    C   1.0     0.955606     0.171576     0.916415  Biso 1.000000     C
    C   1.0     0.955608     0.671584     0.916415  Biso 1.000000     C
    C   1.0     0.013805     0.167311     0.965665  Biso 1.000000     C
    C   1.0     0.013807     0.667319     0.965665  Biso 1.000000     C
    C   1.0     0.513814     0.167312     0.965665  Biso 1.000000     C
    C   1.0     0.513816     0.667320     0.965664  Biso 1.000000     C
    C   1.0     0.461686     0.277743     0.198328  Biso 1.000000     C
    C   1.0     0.461687     0.777751     0.198327  Biso 1.000000     C
    C   1.0     0.961698     0.277742     0.198331  Biso 1.000000     C
    C   1.0     0.961699     0.777750     0.198330  Biso 1.000000     C
    C   1.0     0.446340     0.391793     0.245304  Biso 1.000000     C
    C   1.0     0.446343     0.891800     0.245305  Biso 1.000000     C
    C   1.0     0.946346     0.391793     0.245300  Biso 1.000000     C
    C   1.0     0.946349     0.891800     0.245301  Biso 1.000000     C
    C   1.0     0.426634     0.326250     0.247848  Biso 1.000000     C
    C   1.0     0.426635     0.826257     0.247847  Biso 1.000000     C
    C   1.0     0.926647     0.326248     0.247851  Biso 1.000000     C
    C   1.0     0.926647     0.826256     0.247849  Biso 1.000000     C
    C   1.0     0.411939     0.435225     0.290588  Biso 1.000000     C
    C   1.0     0.411942     0.935233     0.290588  Biso 1.000000     C
    C   1.0     0.911948     0.435226     0.290587  Biso 1.000000     C
    C   1.0     0.911950     0.935233     0.290587  Biso 1.000000     C
    C   1.0     0.341210     0.353045     0.340951  Biso 1.000000     C
    C   1.0     0.341212     0.853052     0.340952  Biso 1.000000     C
    C   1.0     0.841217     0.353046     0.340950  Biso 1.000000     C
    C   1.0     0.841220     0.853053     0.340950  Biso 1.000000     C
    C   1.0     0.372760     0.306960     0.296630  Biso 1.000000     C
    C   1.0     0.372763     0.806967     0.296631  Biso 1.000000     C
    C   1.0     0.872765     0.306961     0.296626  Biso 1.000000     C
    C   1.0     0.872768     0.806968     0.296627  Biso 1.000000     C
    C   1.0     0.185028     0.260532    -0.002146  Biso 1.000000     C
    C   1.0     0.185030     0.760539    -0.002147  Biso 1.000000     C
    C   1.0     0.685037     0.260531    -0.002146  Biso 1.000000     C
    C   1.0     0.685039     0.760540    -0.002147  Biso 1.000000     C
    C   1.0     0.321851     0.407092     0.099315  Biso 1.000000     C
    C   1.0     0.321852     0.907100     0.099315  Biso 1.000000     C
    C   1.0     0.821859     0.407094     0.099314  Biso 1.000000     C
    C   1.0     0.821861     0.907100     0.099315  Biso 1.000000     C
    C   1.0     0.210324     0.368532     0.144337  Biso 1.000000     C
    C   1.0     0.210326     0.868540     0.144337  Biso 1.000000     C
    C   1.0     0.710332     0.368533     0.144337  Biso 1.000000     C
    C   1.0     0.710335     0.868540     0.144337  Biso 1.000000     C
    C   1.0     0.205643     0.328443     0.083568  Biso 1.000000     C
    C   1.0     0.205645     0.828450     0.083568  Biso 1.000000     C
    C   1.0     0.705652     0.328443     0.083568  Biso 1.000000     C
    C   1.0     0.705654     0.828450     0.083569  Biso 1.000000     C
    C   1.0     0.263878     0.332706     0.034322  Biso 1.000000     C
    C   1.0     0.263880     0.832713     0.034322  Biso 1.000000     C
    C   1.0     0.763887     0.332706     0.034322  Biso 1.000000     C
    C   1.0     0.763889     0.832713     0.034321  Biso 1.000000     C
    C   1.0     0.211674     0.222269     0.801669  Biso 1.000000     C
    C   1.0     0.211679     0.722277     0.801666  Biso 1.000000     C
    C   1.0     0.711690     0.222271     0.801663  Biso 1.000000     C
    C   1.0     0.711685     0.722276     0.801669  Biso 1.000000     C
    C   1.0     0.196257     0.108218     0.754711  Biso 1.000000     C
    C   1.0     0.196256     0.608225     0.754715  Biso 1.000000     C
    C   1.0     0.696260     0.108218     0.754717  Biso 1.000000     C
    C   1.0     0.696269     0.608226     0.754710  Biso 1.000000     C
    C   1.0     0.176601     0.173755     0.752150  Biso 1.000000     C
    C   1.0     0.176605     0.673764     0.752148  Biso 1.000000     C
    C   1.0     0.676617     0.173758     0.752144  Biso 1.000000     C
    C   1.0     0.676611     0.673762     0.752151  Biso 1.000000     C
    C   1.0     0.161864     0.064772     0.709415  Biso 1.000000     C
    C   1.0     0.161866     0.564780     0.709416  Biso 1.000000     C
    C   1.0     0.661872     0.064773     0.709417  Biso 1.000000     C
    C   1.0     0.661876     0.564780     0.709414  Biso 1.000000     C
    C   1.0     0.091230     0.146932     0.659013  Biso 1.000000     C
    C   1.0     0.091230     0.646938     0.659016  Biso 1.000000     C
    C   1.0     0.591234     0.146930     0.659018  Biso 1.000000     C
    C   1.0     0.591241     0.646939     0.659014  Biso 1.000000     C
    C   1.0     0.122777     0.193030     0.703344  Biso 1.000000     C
    C   1.0     0.122773     0.693035     0.703350  Biso 1.000000     C
    C   1.0     0.622775     0.193027     0.703354  Biso 1.000000     C
    C   1.0     0.622788     0.693037     0.703345  Biso 1.000000     C
    N   1.0    -0.000115     0.039371     0.519634  Biso 1.000000     N
    N   1.0    -0.000113     0.539378     0.519634  Biso 1.000000     N
    N   1.0     0.499894     0.039371     0.519634  Biso 1.000000     N
    N   1.0     0.499896     0.539378     0.519634  Biso 1.000000     N
    N   1.0     0.073643     0.121764     0.459897  Biso 1.000000     N
    N   1.0     0.073645     0.621771     0.459897  Biso 1.000000     N
    N   1.0     0.573652     0.121764     0.459897  Biso 1.000000     N
    N   1.0     0.573654     0.621771     0.459897  Biso 1.000000     N
    N   1.0     0.405819     0.031775     0.440686  Biso 1.000000     N
    N   1.0     0.405821     0.531783     0.440686  Biso 1.000000     N
    N   1.0     0.905828     0.031775     0.440686  Biso 1.000000     N
    N   1.0     0.905830     0.531783     0.440686  Biso 1.000000     N
    N   1.0     0.020046     0.157963     0.349147  Biso 1.000000     N
    N   1.0     0.020048     0.657970     0.349146  Biso 1.000000     N
    N   1.0     0.520055     0.157963     0.349147  Biso 1.000000     N
    N   1.0     0.520057     0.657971     0.349147  Biso 1.000000     N
    N   1.0     0.410034     0.118583     0.301853  Biso 1.000000     N
    N   1.0     0.410036     0.618590     0.301853  Biso 1.000000     N
    N   1.0     0.910044     0.118583     0.301853  Biso 1.000000     N
    N   1.0     0.910045     0.618590     0.301853  Biso 1.000000     N
    N   1.0     0.360267     0.333671     0.837955  Biso 1.000000     N
    N   1.0     0.360271     0.833678     0.837956  Biso 1.000000     N
    N   1.0     0.860276     0.333670     0.837955  Biso 1.000000     N
    N   1.0     0.860276     0.833678     0.837953  Biso 1.000000     N
    N   1.0     0.249852     0.460610     0.480294  Biso 1.000000     N
    N   1.0     0.249855     0.960618     0.480294  Biso 1.000000     N
    N   1.0     0.749861     0.460610     0.480294  Biso 1.000000     N
    N   1.0     0.749864     0.960618     0.480294  Biso 1.000000     N
    N   1.0     0.323569     0.378260     0.540014  Biso 1.000000     N
    N   1.0     0.323571     0.878267     0.540014  Biso 1.000000     N
    N   1.0     0.823578     0.378259     0.540013  Biso 1.000000     N
    N   1.0     0.823580     0.878267     0.540014  Biso 1.000000     N
    N   1.0     0.155811     0.468217     0.559292  Biso 1.000000     N
    N   1.0     0.155813     0.968224     0.559292  Biso 1.000000     N
    N   1.0     0.655820     0.468217     0.559292  Biso 1.000000     N
    N   1.0     0.655823     0.968225     0.559292  Biso 1.000000     N
    N   1.0     0.269991     0.342077     0.650808  Biso 1.000000     N
    N   1.0     0.269993     0.842085     0.650808  Biso 1.000000     N
    N   1.0     0.770000     0.342077     0.650808  Biso 1.000000     N
    N   1.0     0.770002     0.842084     0.650808  Biso 1.000000     N
    N   1.0     0.159999     0.381409     0.698139  Biso 1.000000     N
    N   1.0     0.160002     0.881417     0.698139  Biso 1.000000     N
    N   1.0     0.660009     0.381410     0.698139  Biso 1.000000     N
    N   1.0     0.660010     0.881417     0.698139  Biso 1.000000     N
    N   1.0     0.110226     0.166353     0.162100  Biso 1.000000     N
    N   1.0     0.110231     0.666360     0.162098  Biso 1.000000     N
    N   1.0     0.610235     0.166352     0.162100  Biso 1.000000     N
    N   1.0     0.610244     0.666359     0.162095  Biso 1.000000     N
    N   1.0    -0.000330     0.210619     0.019876  Biso 1.000000     N
    N   1.0    -0.000328     0.710626     0.019876  Biso 1.000000     N
    N   1.0     0.499679     0.210619     0.019876  Biso 1.000000     N
    N   1.0     0.499681     0.710626     0.019876  Biso 1.000000     N
    N   1.0     0.073596     0.128446     0.960171  Biso 1.000000     N
    N   1.0     0.073599     0.628454     0.960170  Biso 1.000000     N
    N   1.0     0.573606     0.128447     0.960170  Biso 1.000000     N
    N   1.0     0.573609     0.628455     0.960169  Biso 1.000000     N
    N   1.0     0.405668     0.218136     0.940832  Biso 1.000000     N
    N   1.0     0.405670     0.718143     0.940832  Biso 1.000000     N
    N   1.0     0.905678     0.218136     0.940831  Biso 1.000000     N
    N   1.0     0.905679     0.718143     0.940832  Biso 1.000000     N
    N   1.0     0.020161     0.092222     0.849378  Biso 1.000000     N
    N   1.0     0.020164     0.592231     0.849377  Biso 1.000000     N
    N   1.0     0.520171     0.092223     0.849377  Biso 1.000000     N
    N   1.0     0.520174     0.592232     0.849376  Biso 1.000000     N
    N   1.0     0.410048     0.131299     0.802074  Biso 1.000000     N
    N   1.0     0.410050     0.631307     0.802073  Biso 1.000000     N
    N   1.0     0.910056     0.131298     0.802074  Biso 1.000000     N
    N   1.0     0.910059     0.631307     0.802074  Biso 1.000000     N
    N   1.0     0.360356     0.416298     0.338017  Biso 1.000000     N
    N   1.0     0.360357     0.916306     0.338016  Biso 1.000000     N
    N   1.0     0.860368     0.416298     0.338020  Biso 1.000000     N
    N   1.0     0.860369     0.916306     0.338018  Biso 1.000000     N
    N   1.0     0.249722     0.289375     0.980130  Biso 1.000000     N
    N   1.0     0.249724     0.789382     0.980130  Biso 1.000000     N
    N   1.0     0.749731     0.289374     0.980131  Biso 1.000000     N
    N   1.0     0.749733     0.789382     0.980130  Biso 1.000000     N
    N   1.0     0.323696     0.371589     0.039799  Biso 1.000000     N
    N   1.0     0.323698     0.871596     0.039799  Biso 1.000000     N
    N   1.0     0.823705     0.371590     0.039799  Biso 1.000000     N
    N   1.0     0.823707     0.871597     0.039799  Biso 1.000000     N
    N   1.0     0.155687     0.281862     0.059172  Biso 1.000000     N
    N   1.0     0.155689     0.781869     0.059172  Biso 1.000000     N
    N   1.0     0.655696     0.281861     0.059172  Biso 1.000000     N
    N   1.0     0.655699     0.781869     0.059172  Biso 1.000000     N
    N   1.0     0.270253     0.407835     0.150577  Biso 1.000000     N
    N   1.0     0.270255     0.907842     0.150576  Biso 1.000000     N
    N   1.0     0.770261     0.407836     0.150575  Biso 1.000000     N
    N   1.0     0.770264     0.907843     0.150576  Biso 1.000000     N
    N   1.0     0.160083     0.368734     0.197888  Biso 1.000000     N
    N   1.0     0.160085     0.868742     0.197887  Biso 1.000000     N
    N   1.0     0.660092     0.368734     0.197887  Biso 1.000000     N
    N   1.0     0.660094     0.868742     0.197887  Biso 1.000000     N
    N   1.0     0.110343     0.083689     0.661953  Biso 1.000000     N
    N   1.0     0.110348     0.583696     0.661950  Biso 1.000000     N
    N   1.0     0.610358     0.083689     0.661948  Biso 1.000000     N
    N   1.0     0.610353     0.583696     0.661953  Biso 1.000000     N
    O   1.0     0.018898     0.450038     0.663791  Biso 1.000000     O
    O   1.0     0.018903     0.950047     0.663795  Biso 1.000000     O
    O   1.0     0.518908     0.450039     0.663793  Biso 1.000000     O
    O   1.0     0.518908     0.950045     0.663790  Biso 1.000000     O
    O   1.0     0.435442     0.027708     0.691786  Biso 1.000000     O
    O   1.0     0.435445     0.527717     0.691786  Biso 1.000000     O
    O   1.0     0.935454     0.027710     0.691788  Biso 1.000000     O
    O   1.0     0.935454     0.527716     0.691786  Biso 1.000000     O
    O   1.0     0.268880     0.049953     0.336161  Biso 1.000000     O
    O   1.0     0.268880     0.549962     0.336165  Biso 1.000000     O
    O   1.0     0.768888     0.049954     0.336163  Biso 1.000000     O
    O   1.0     0.768887     0.549964     0.336168  Biso 1.000000     O
    O   1.0     0.185277     0.472316     0.308211  Biso 1.000000     O
    O   1.0     0.185282     0.972322     0.308208  Biso 1.000000     O
    O   1.0     0.685284     0.472317     0.308214  Biso 1.000000     O
    O   1.0     0.685290     0.972322     0.308209  Biso 1.000000     O
    O   1.0     0.018900     0.299988     0.163848  Biso 1.000000     O
    O   1.0     0.018903     0.799995     0.163850  Biso 1.000000     O
    O   1.0     0.518912     0.299986     0.163852  Biso 1.000000     O
    O   1.0     0.518915     0.799993     0.163853  Biso 1.000000     O
    O   1.0     0.435210     0.222385     0.191761  Biso 1.000000     O
    O   1.0     0.435212     0.722393     0.191762  Biso 1.000000     O
    O   1.0     0.935217     0.222386     0.191759  Biso 1.000000     O
    O   1.0     0.935220     0.722393     0.191760  Biso 1.000000     O
    O   1.0     0.268888     0.200035     0.836125  Biso 1.000000     O
    O   1.0     0.268887     0.700040     0.836129  Biso 1.000000     O
    O   1.0     0.768891     0.200031     0.836133  Biso 1.000000     O
    O   1.0     0.768899     0.700042     0.836124  Biso 1.000000     O
    O   1.0     0.185244     0.277621     0.808235  Biso 1.000000     O
    O   1.0     0.185245     0.777628     0.808237  Biso 1.000000     O
    O   1.0     0.685250     0.277620     0.808239  Biso 1.000000     O
    O   1.0     0.685256     0.777629     0.808235  Biso 1.000000     O
   Zn   1.0     0.065495     0.013859     0.598453  Biso 1.000000    Zn
   Zn   1.0     0.065497     0.513866     0.598453  Biso 1.000000    Zn
   Zn   1.0     0.565504     0.013859     0.598453  Biso 1.000000    Zn
   Zn   1.0     0.565506     0.513866     0.598453  Biso 1.000000    Zn
   Zn   1.0     0.315492     0.486144     0.401483  Biso 1.000000    Zn
   Zn   1.0     0.315494     0.986152     0.401483  Biso 1.000000    Zn
   Zn   1.0     0.815501     0.486144     0.401483  Biso 1.000000    Zn
   Zn   1.0     0.815503     0.986152     0.401483  Biso 1.000000    Zn
   Zn   1.0     0.065446     0.236175     0.098526  Biso 1.000000    Zn
   Zn   1.0     0.065448     0.736183     0.098526  Biso 1.000000    Zn
   Zn   1.0     0.565455     0.236175     0.098526  Biso 1.000000    Zn
   Zn   1.0     0.565457     0.736182     0.098526  Biso 1.000000    Zn
   Zn   1.0     0.315465     0.263819     0.901481  Biso 1.000000    Zn
   Zn   1.0     0.315467     0.763826     0.901481  Biso 1.000000    Zn
   Zn   1.0     0.815474     0.263818     0.901481  Biso 1.000000    Zn
   Zn   1.0     0.815476     0.763826     0.901481  Biso 1.000000    Zn
