#======================================================================

# CRYSTAL DATA

#----------------------------------------------------------------------

data_VESTA_phase_1


_pd_phase_name                         MOF
_cell_length_a                         18.43400
_cell_length_b                         18.42300
_cell_length_c                         18.42100
_cell_angle_alpha                      60.16100
_cell_angle_beta                       60.17900
_cell_angle_gamma                      60.18200
_symmetry_space_group_name_H-M         "P 1"
_symmetry_Int_Tables_number            1

loop_
_symmetry_equiv_pos_as_xyz
   "x, y, z"

loop_
   _atom_site_label
   _atom_site_occupancy
   _atom_site_fract_x
   _atom_site_fract_y
   _atom_site_fract_z
   _atom_site_adp_type
   _atom_site_B_iso_or_equiv
   _atom_site_type_symbol
    H   1.0     0.451241     0.451824     0.931989  Biso 1.000000     H
    H   1.0     0.452419     0.452140     0.164381  Biso 1.000000     H
    H   1.0     0.932033     0.164387     0.451505  Biso 1.000000     H
    H   1.0     0.164228     0.931771     0.452129  Biso 1.000000     H
    H   1.0     0.451724     0.931868     0.164400  Biso 1.000000     H
    H   1.0     0.451795     0.164384     0.931794  Biso 1.000000     H
    H   1.0     0.932198     0.451400     0.451448  Biso 1.000000     H
    H   1.0     0.164212     0.452418     0.452395  Biso 1.000000     H
    H   1.0     0.452421     0.164363     0.452156  Biso 1.000000     H
    H   1.0     0.451245     0.932029     0.451784  Biso 1.000000     H
    H   1.0     0.932041     0.451486     0.164403  Biso 1.000000     H
    H   1.0     0.164223     0.452161     0.931735  Biso 1.000000     H
    H   1.0     0.548737     0.548203     0.068018  Biso 1.000000     H
    H   1.0     0.547559     0.547887     0.835625  Biso 1.000000     H
    H   1.0     0.835749     0.068256     0.547876  Biso 1.000000     H
    H   1.0     0.067945     0.835640     0.548499  Biso 1.000000     H
    H   1.0     0.067939     0.548538     0.835603  Biso 1.000000     H
    H   1.0     0.835757     0.547863     0.068271  Biso 1.000000     H
    H   1.0     0.548738     0.067995     0.548221  Biso 1.000000     H
    H   1.0     0.547561     0.835661     0.547849  Biso 1.000000     H
    H   1.0     0.835769     0.547600     0.547619  Biso 1.000000     H
    H   1.0     0.067783     0.548618     0.548567  Biso 1.000000     H
    H   1.0     0.548261     0.068156     0.835607  Biso 1.000000     H
    H   1.0     0.548190     0.835640     0.068214  Biso 1.000000     H
    C   1.0     0.472984     0.473316     0.961018  Biso 1.000000     C
    C   1.0     0.473648     0.473485     0.092371  Biso 1.000000     C
    C   1.0     0.961022     0.092378     0.473127  Biso 1.000000     C
    C   1.0     0.092281     0.960882     0.473483  Biso 1.000000     C
    C   1.0     0.473257     0.960941     0.092382  Biso 1.000000     C
    C   1.0     0.473292     0.092378     0.960894  Biso 1.000000     C
    C   1.0     0.961138     0.473072     0.473100  Biso 1.000000     C
    C   1.0     0.092272     0.473649     0.473637  Biso 1.000000     C
    C   1.0     0.473650     0.092363     0.473491  Biso 1.000000     C
    C   1.0     0.472990     0.961047     0.473283  Biso 1.000000     C
    C   1.0     0.961032     0.473119     0.092384  Biso 1.000000     C
    C   1.0     0.092276     0.473511     0.960854  Biso 1.000000     C
    C   1.0     0.526993     0.526712     0.038989  Biso 1.000000     C
    C   1.0     0.526329     0.526543     0.907636  Biso 1.000000     C
    C   1.0     0.907697     0.039145     0.526521  Biso 1.000000     C
    C   1.0     0.038955     0.907649     0.526876  Biso 1.000000     C
    C   1.0     0.038948     0.526905     0.907622  Biso 1.000000     C
    C   1.0     0.907704     0.526514     0.039152  Biso 1.000000     C
    C   1.0     0.526993     0.038976     0.526721  Biso 1.000000     C
    C   1.0     0.526333     0.907661     0.526513  Biso 1.000000     C
    C   1.0     0.907709     0.526367     0.526379  Biso 1.000000     C
    C   1.0     0.038844     0.526944     0.526916  Biso 1.000000     C
    C   1.0     0.526730     0.039084     0.907626  Biso 1.000000     C
    C   1.0     0.526694     0.907646     0.039113  Biso 1.000000     C
    C   1.0     0.388956     0.389124     0.111110  Biso 1.000000     C
    C   1.0     0.446297     0.446439     0.053726  Biso 1.000000     C
    C   1.0     0.110988     0.110847     0.388803  Biso 1.000000     C
    C   1.0     0.053650     0.053572     0.446271  Biso 1.000000     C
    C   1.0     0.388731     0.110946     0.110905  Biso 1.000000     C
    C   1.0     0.446223     0.053628     0.053602  Biso 1.000000     C
    C   1.0     0.111176     0.389036     0.389050  Biso 1.000000     C
    C   1.0     0.053770     0.446363     0.446379  Biso 1.000000     C
    C   1.0     0.388951     0.111122     0.389118  Biso 1.000000     C
    C   1.0     0.446297     0.053737     0.446428  Biso 1.000000     C
    C   1.0     0.110997     0.388801     0.110838  Biso 1.000000     C
    C   1.0     0.053660     0.446275     0.053562  Biso 1.000000     C
    C   1.0     0.611025     0.610899     0.888896  Biso 1.000000     C
    C   1.0     0.553676     0.553593     0.946280  Biso 1.000000     C
    C   1.0     0.888990     0.889180     0.611205  Biso 1.000000     C
    C   1.0     0.946327     0.946456     0.553729  Biso 1.000000     C
    C   1.0     0.888983     0.611224     0.889169  Biso 1.000000     C
    C   1.0     0.946320     0.553749     0.946445  Biso 1.000000     C
    C   1.0     0.611029     0.888901     0.610888  Biso 1.000000     C
    C   1.0     0.553686     0.946286     0.553575  Biso 1.000000     C
    C   1.0     0.888805     0.610990     0.610956  Biso 1.000000     C
    C   1.0     0.946211     0.553647     0.553642  Biso 1.000000     C
    C   1.0     0.611251     0.889078     0.889102  Biso 1.000000     C
    C   1.0     0.553764     0.946396     0.946405  Biso 1.000000     C
    O   1.0     0.250061     0.250015     0.250000  Biso 1.000000     O
    O   1.0     0.749919     0.750009     0.750007  Biso 1.000000     O
    O   1.0     0.366631     0.366981     0.071477  Biso 1.000000     O
    O   1.0     0.367049     0.367108     0.194937  Biso 1.000000     O
    O   1.0     0.071467     0.194645     0.366521  Biso 1.000000     O
    O   1.0     0.194716     0.071226     0.366779  Biso 1.000000     O
    O   1.0     0.366542     0.071343     0.194718  Biso 1.000000     O
    O   1.0     0.366588     0.194746     0.071284  Biso 1.000000     O
    O   1.0     0.071642     0.366746     0.366770  Biso 1.000000     O
    O   1.0     0.194921     0.367119     0.367127  Biso 1.000000     O
    O   1.0     0.367056     0.194936     0.367102  Biso 1.000000     O
    O   1.0     0.366614     0.071503     0.366972  Biso 1.000000     O
    O   1.0     0.071474     0.366511     0.194648  Biso 1.000000     O
    O   1.0     0.194726     0.366784     0.071206  Biso 1.000000     O
    O   1.0     0.633349     0.633044     0.928530  Biso 1.000000     O
    O   1.0     0.632931     0.632917     0.805070  Biso 1.000000     O
    O   1.0     0.805262     0.928800     0.633228  Biso 1.000000     O
    O   1.0     0.928512     0.805382     0.633485  Biso 1.000000     O
    O   1.0     0.928506     0.633515     0.805358  Biso 1.000000     O
    O   1.0     0.805254     0.633240     0.928801  Biso 1.000000     O
    O   1.0     0.633365     0.928521     0.633034  Biso 1.000000     O
    O   1.0     0.632925     0.805087     0.632903  Biso 1.000000     O
    O   1.0     0.805061     0.632903     0.632882  Biso 1.000000     O
    O   1.0     0.928339     0.633278     0.633239  Biso 1.000000     O
    O   1.0     0.633437     0.928681     0.805289  Biso 1.000000     O
    O   1.0     0.633394     0.805278     0.928723  Biso 1.000000     O
   Zn   1.0     0.293284     0.293386     0.119495  Biso 1.000000    Zn
   Zn   1.0     0.293635     0.293717     0.293720  Biso 1.000000    Zn
   Zn   1.0     0.119688     0.293276     0.293287  Biso 1.000000    Zn
   Zn   1.0     0.293263     0.119532     0.293377  Biso 1.000000    Zn
   Zn   1.0     0.706695     0.706638     0.880511  Biso 1.000000    Zn
   Zn   1.0     0.706346     0.706307     0.706286  Biso 1.000000    Zn
   Zn   1.0     0.706715     0.880492     0.706630  Biso 1.000000    Zn
   Zn   1.0     0.880291     0.706751     0.706719  Biso 1.000000    Zn
