#======================================================================

# CRYSTAL DATA

#----------------------------------------------------------------------

data_VESTA_phase_1


_pd_phase_name                         MOF
_cell_length_a                         18.40500
_cell_length_b                         18.41800
_cell_length_c                         18.41800
_cell_angle_alpha                      60.25200
_cell_angle_beta                       60.26900
_cell_angle_gamma                      60.26900
_symmetry_space_group_name_H-M         "P 1"
_symmetry_Int_Tables_number            1

loop_
_symmetry_equiv_pos_as_xyz
   "x, y, z"

loop_
   _atom_site_label
   _atom_site_occupancy
   _atom_site_fract_x
   _atom_site_fract_y
   _atom_site_fract_z
   _atom_site_adp_type
   _atom_site_B_iso_or_equiv
   _atom_site_type_symbol
    H   1.0     0.451320     0.451270     0.932203  Biso 1.000000     H
    H   1.0     0.452523     0.452450     0.164208  Biso 1.000000     H
    H   1.0     0.931887     0.164221     0.451803  Biso 1.000000     H
    H   1.0     0.164340     0.931995     0.451704  Biso 1.000000     H
    H   1.0     0.451816     0.931901     0.164234  Biso 1.000000     H
    H   1.0     0.451810     0.164221     0.931937  Biso 1.000000     H
    H   1.0     0.932018     0.451388     0.451392  Biso 1.000000     H
    H   1.0     0.164316     0.452450     0.452451  Biso 1.000000     H
    H   1.0     0.452525     0.164201     0.452455  Biso 1.000000     H
    H   1.0     0.451334     0.932170     0.451287  Biso 1.000000     H
    H   1.0     0.931883     0.451796     0.164229  Biso 1.000000     H
    H   1.0     0.164341     0.451685     0.932027  Biso 1.000000     H
    H   1.0     0.548702     0.548688     0.067792  Biso 1.000000     H
    H   1.0     0.547499     0.547508     0.835787  Biso 1.000000     H
    H   1.0     0.835680     0.067965     0.548293  Biso 1.000000     H
    H   1.0     0.068132     0.835738     0.548194  Biso 1.000000     H
    H   1.0     0.068137     0.548164     0.835767  Biso 1.000000     H
    H   1.0     0.835679     0.548274     0.067969  Biso 1.000000     H
    H   1.0     0.548688     0.067790     0.548708  Biso 1.000000     H
    H   1.0     0.547498     0.835759     0.547540  Biso 1.000000     H
    H   1.0     0.835703     0.547514     0.547541  Biso 1.000000     H
    H   1.0     0.068001     0.548576     0.548600  Biso 1.000000     H
    H   1.0     0.548202     0.068059     0.835762  Biso 1.000000     H
    H   1.0     0.548208     0.835740     0.068059  Biso 1.000000     H
    C   1.0     0.473033     0.472979     0.961148  Biso 1.000000     C
    C   1.0     0.473717     0.473661     0.092272  Biso 1.000000     C
    C   1.0     0.960938     0.092279     0.473313  Biso 1.000000     C
    C   1.0     0.092355     0.960982     0.473258  Biso 1.000000     C
    C   1.0     0.473319     0.960942     0.092289  Biso 1.000000     C
    C   1.0     0.473316     0.092275     0.960971  Biso 1.000000     C
    C   1.0     0.961063     0.473037     0.473063  Biso 1.000000     C
    C   1.0     0.092336     0.473646     0.473670  Biso 1.000000     C
    C   1.0     0.473687     0.092264     0.473699  Biso 1.000000     C
    C   1.0     0.473009     0.961116     0.473030  Biso 1.000000     C
    C   1.0     0.960935     0.473284     0.092287  Biso 1.000000     C
    C   1.0     0.092356     0.473216     0.961014  Biso 1.000000     C
    C   1.0     0.526988     0.526981     0.038848  Biso 1.000000     C
    C   1.0     0.526304     0.526299     0.907724  Biso 1.000000     C
    C   1.0     0.907665     0.038977     0.526738  Biso 1.000000     C
    C   1.0     0.039082     0.907681     0.526682  Biso 1.000000     C
    C   1.0     0.039085     0.526676     0.907710  Biso 1.000000     C
    C   1.0     0.907664     0.526744     0.038983  Biso 1.000000     C
    C   1.0     0.527012     0.038844     0.526965  Biso 1.000000     C
    C   1.0     0.526334     0.907695     0.526296  Biso 1.000000     C
    C   1.0     0.907684     0.526317     0.526324  Biso 1.000000     C
    C   1.0     0.038956     0.526925     0.526931  Biso 1.000000     C
    C   1.0     0.526700     0.039019     0.907707  Biso 1.000000     C
    C   1.0     0.526703     0.907686     0.039025  Biso 1.000000     C
    C   1.0     0.389063     0.388968     0.111176  Biso 1.000000     C
    C   1.0     0.446383     0.446321     0.053773  Biso 1.000000     C
    C   1.0     0.110912     0.110933     0.388690  Biso 1.000000     C
    C   1.0     0.053606     0.053620     0.446205  Biso 1.000000     C
    C   1.0     0.388783     0.110876     0.110888  Biso 1.000000     C
    C   1.0     0.446242     0.053590     0.053598  Biso 1.000000     C
    C   1.0     0.111129     0.389020     0.389056  Biso 1.000000     C
    C   1.0     0.053751     0.446379     0.446340  Biso 1.000000     C
    C   1.0     0.389039     0.111164     0.389003  Biso 1.000000     C
    C   1.0     0.446431     0.053762     0.446286  Biso 1.000000     C
    C   1.0     0.110909     0.388667     0.110944  Biso 1.000000     C
    C   1.0     0.053604     0.446222     0.053631  Biso 1.000000     C
    C   1.0     0.610954     0.610995     0.888820  Biso 1.000000     C
    C   1.0     0.553641     0.553634     0.946223  Biso 1.000000     C
    C   1.0     0.889108     0.889027     0.611302  Biso 1.000000     C
    C   1.0     0.946413     0.946340     0.553795  Biso 1.000000     C
    C   1.0     0.889111     0.611294     0.889052  Biso 1.000000     C
    C   1.0     0.946416     0.553737     0.946366  Biso 1.000000     C
    C   1.0     0.610980     0.888796     0.610994  Biso 1.000000     C
    C   1.0     0.553592     0.946198     0.553708  Biso 1.000000     C
    C   1.0     0.888890     0.610938     0.610942  Biso 1.000000     C
    C   1.0     0.946269     0.553587     0.553650  Biso 1.000000     C
    C   1.0     0.611240     0.889085     0.889108  Biso 1.000000     C
    C   1.0     0.553773     0.946371     0.946399  Biso 1.000000     C
    O   1.0     0.250031     0.250019     0.250030  Biso 1.000000     O
    O   1.0     0.749989     0.749941     0.749966  Biso 1.000000     O
    O   1.0     0.366727     0.366654     0.071614  Biso 1.000000     O
    O   1.0     0.367223     0.367056     0.194922  Biso 1.000000     O
    O   1.0     0.071342     0.194650     0.366470  Biso 1.000000     O
    O   1.0     0.194675     0.071400     0.366504  Biso 1.000000     O
    O   1.0     0.366585     0.071334     0.194615  Biso 1.000000     O
    O   1.0     0.366584     0.194603     0.071350  Biso 1.000000     O
    O   1.0     0.071509     0.366733     0.366736  Biso 1.000000     O
    O   1.0     0.194937     0.367141     0.367135  Biso 1.000000     O
    O   1.0     0.367221     0.194910     0.367069  Biso 1.000000     O
    O   1.0     0.366739     0.071601     0.366654  Biso 1.000000     O
    O   1.0     0.071339     0.366457     0.194661  Biso 1.000000     O
    O   1.0     0.194673     0.366504     0.071411  Biso 1.000000     O
    O   1.0     0.633292     0.633307     0.928382  Biso 1.000000     O
    O   1.0     0.632796     0.632905     0.805074  Biso 1.000000     O
    O   1.0     0.805344     0.928560     0.633491  Biso 1.000000     O
    O   1.0     0.928678     0.805310     0.633523  Biso 1.000000     O
    O   1.0     0.928680     0.633505     0.805335  Biso 1.000000     O
    O   1.0     0.805347     0.633455     0.928585  Biso 1.000000     O
    O   1.0     0.633278     0.928359     0.633345  Biso 1.000000     O
    O   1.0     0.632801     0.805049     0.632926  Biso 1.000000     O
    O   1.0     0.805082     0.632819     0.632861  Biso 1.000000     O
    O   1.0     0.928511     0.633225     0.633262  Biso 1.000000     O
    O   1.0     0.633437     0.928626     0.805382  Biso 1.000000     O
    O   1.0     0.633435     0.805357     0.928646  Biso 1.000000     O
   Zn   1.0     0.293272     0.293103     0.119673  Biso 1.000000    Zn
   Zn   1.0     0.293766     0.293756     0.293767  Biso 1.000000    Zn
   Zn   1.0     0.119592     0.293238     0.293249  Biso 1.000000    Zn
   Zn   1.0     0.293274     0.119662     0.293111  Biso 1.000000    Zn
   Zn   1.0     0.706748     0.706858     0.880323  Biso 1.000000    Zn
   Zn   1.0     0.706254     0.706204     0.706230  Biso 1.000000    Zn
   Zn   1.0     0.706746     0.880298     0.706885  Biso 1.000000    Zn
   Zn   1.0     0.880428     0.706721     0.706748  Biso 1.000000    Zn
