#======================================================================

# CRYSTAL DATA

#----------------------------------------------------------------------

data_VESTA_phase_1


_pd_phase_name                         MOF
_cell_length_a                         23.02000
_cell_length_b                         14.98000
_cell_length_c                         14.98200
_cell_angle_alpha                      90.00800
_cell_angle_beta                       89.98000
_cell_angle_gamma                      90.01600
_symmetry_space_group_name_H-M         "P 1"
_symmetry_Int_Tables_number            1

loop_
_symmetry_equiv_pos_as_xyz
   "x, y, z"

loop_
   _atom_site_label
   _atom_site_occupancy
   _atom_site_fract_x
   _atom_site_fract_y
   _atom_site_fract_z
   _atom_site_adp_type
   _atom_site_B_iso_or_equiv
   _atom_site_type_symbol
    H   1.0     0.213927     0.373309     0.090661  Biso 1.000000     H
    H   1.0     0.713937     0.373319     0.090658  Biso 1.000000     H
    H   1.0     0.284176     0.398988     0.045253  Biso 1.000000     H
    H   1.0     0.784187     0.398997     0.045252  Biso 1.000000     H
    H   1.0     0.266675     0.287661     0.071825  Biso 1.000000     H
    H   1.0     0.766685     0.287670     0.071820  Biso 1.000000     H
    H   1.0     0.447842     0.307569     0.297566  Biso 1.000000     H
    H   1.0     0.947847     0.307557     0.297567  Biso 1.000000     H
    H   1.0     0.456247     0.414574     0.250145  Biso 1.000000     H
    H   1.0     0.956258     0.414562     0.250151  Biso 1.000000     H
    H   1.0     0.445233     0.403526     0.368035  Biso 1.000000     H
    H   1.0     0.945241     0.403511     0.368040  Biso 1.000000     H
    H   1.0     0.328396     0.201922     0.231604  Biso 1.000000     H
    H   1.0     0.828403     0.201922     0.231604  Biso 1.000000     H
    H   1.0     0.328689     0.036610     0.221474  Biso 1.000000     H
    H   1.0     0.828696     0.036610     0.221475  Biso 1.000000     H
    H   1.0     0.446882     0.038482     0.013204  Biso 1.000000     H
    H   1.0     0.946891     0.038481     0.013206  Biso 1.000000     H
    H   1.0     0.452100     0.203494     0.012986  Biso 1.000000     H
    H   1.0     0.952110     0.203494     0.012990  Biso 1.000000     H
    H   1.0     0.463860     0.626721     0.909320  Biso 1.000000     H
    H   1.0     0.963869     0.626722     0.909322  Biso 1.000000     H
    H   1.0     0.034080     0.601042     0.954703  Biso 1.000000     H
    H   1.0     0.534087     0.601038     0.954702  Biso 1.000000     H
    H   1.0     0.016626     0.712370     0.928144  Biso 1.000000     H
    H   1.0     0.516635     0.712365     0.928138  Biso 1.000000     H
    H   1.0     0.197846     0.692475     0.702311  Biso 1.000000     H
    H   1.0     0.697841     0.692516     0.702310  Biso 1.000000     H
    H   1.0     0.206203     0.585476     0.749744  Biso 1.000000     H
    H   1.0     0.706217     0.585514     0.749726  Biso 1.000000     H
    H   1.0     0.195224     0.596510     0.631858  Biso 1.000000     H
    H   1.0     0.695232     0.596561     0.631842  Biso 1.000000     H
    H   1.0     0.078376     0.798112     0.768351  Biso 1.000000     H
    H   1.0     0.578383     0.798123     0.768341  Biso 1.000000     H
    H   1.0     0.078668     0.963422     0.778519  Biso 1.000000     H
    H   1.0     0.578679     0.963434     0.778500  Biso 1.000000     H
    H   1.0     0.196812     0.961602     0.986728  Biso 1.000000     H
    H   1.0     0.696819     0.961618     0.986714  Biso 1.000000     H
    H   1.0     0.202025     0.796589     0.986908  Biso 1.000000     H
    H   1.0     0.702028     0.796604     0.986903  Biso 1.000000     H
    H   1.0     0.088898     0.409344     0.873278  Biso 1.000000     H
    H   1.0     0.588911     0.409354     0.873296  Biso 1.000000     H
    H   1.0     0.159134     0.454789     0.898925  Biso 1.000000     H
    H   1.0     0.659150     0.454793     0.898938  Biso 1.000000     H
    H   1.0     0.141670     0.428147     0.787623  Biso 1.000000     H
    H   1.0     0.641681     0.428156     0.787636  Biso 1.000000     H
    H   1.0     0.322867     0.202416     0.807550  Biso 1.000000     H
    H   1.0     0.822861     0.202423     0.807496  Biso 1.000000     H
    H   1.0     0.331218     0.249887     0.914538  Biso 1.000000     H
    H   1.0     0.831234     0.249865     0.914494  Biso 1.000000     H
    H   1.0     0.320218     0.131975     0.903503  Biso 1.000000     H
    H   1.0     0.820225     0.131957     0.903433  Biso 1.000000     H
    H   1.0     0.203373     0.268398     0.701893  Biso 1.000000     H
    H   1.0     0.703380     0.268398     0.701890  Biso 1.000000     H
    H   1.0     0.203653     0.278549     0.536606  Biso 1.000000     H
    H   1.0     0.703660     0.278549     0.536603  Biso 1.000000     H
    H   1.0     0.321865     0.486809     0.538424  Biso 1.000000     H
    H   1.0     0.821871     0.486807     0.538416  Biso 1.000000     H
    H   1.0     0.327089     0.487015     0.703410  Biso 1.000000     H
    H   1.0     0.827098     0.487014     0.703403  Biso 1.000000     H
    H   1.0     0.338875     0.590656     0.126721  Biso 1.000000     H
    H   1.0     0.838883     0.590654     0.126720  Biso 1.000000     H
    H   1.0     0.409109     0.545271     0.100999  Biso 1.000000     H
    H   1.0     0.909118     0.545270     0.101000  Biso 1.000000     H
    H   1.0     0.391633     0.571837     0.212326  Biso 1.000000     H
    H   1.0     0.891640     0.571834     0.212327  Biso 1.000000     H
    H   1.0     0.072824     0.797694     0.192455  Biso 1.000000     H
    H   1.0     0.572829     0.797696     0.192464  Biso 1.000000     H
    H   1.0     0.081225     0.750259     0.085457  Biso 1.000000     H
    H   1.0     0.581235     0.750266     0.085464  Biso 1.000000     H
    H   1.0     0.070236     0.868160     0.096522  Biso 1.000000     H
    H   1.0     0.570244     0.868167     0.096536  Biso 1.000000     H
    H   1.0     0.453374     0.731643     0.298142  Biso 1.000000     H
    H   1.0     0.953383     0.731642     0.298138  Biso 1.000000     H
    H   1.0     0.453678     0.721485     0.463428  Biso 1.000000     H
    H   1.0     0.953688     0.721487     0.463424  Biso 1.000000     H
    H   1.0     0.071840     0.513266     0.461426  Biso 1.000000     H
    H   1.0     0.571846     0.513265     0.461428  Biso 1.000000     H
    H   1.0     0.077038     0.513076     0.296433  Biso 1.000000     H
    H   1.0     0.577046     0.513077     0.296435  Biso 1.000000     H
    H   1.0     0.161141     0.126742     0.590649  Biso 1.000000     H
    H   1.0     0.661142     0.126702     0.590634  Biso 1.000000     H
    H   1.0     0.090910     0.101009     0.545266  Biso 1.000000     H
    H   1.0     0.590907     0.100984     0.545266  Biso 1.000000     H
    H   1.0     0.108373     0.212352     0.571841  Biso 1.000000     H
    H   1.0     0.608388     0.212327     0.571809  Biso 1.000000     H
    H   1.0     0.427168     0.192423     0.797675  Biso 1.000000     H
    H   1.0     0.927200     0.192498     0.797669  Biso 1.000000     H
    H   1.0     0.418791     0.085420     0.750216  Biso 1.000000     H
    H   1.0     0.918788     0.085482     0.750254  Biso 1.000000     H
    H   1.0     0.429772     0.096457     0.868104  Biso 1.000000     H
    H   1.0     0.929781     0.096561     0.868138  Biso 1.000000     H
    H   1.0     0.046631     0.298159     0.731611  Biso 1.000000     H
    H   1.0     0.546638     0.298146     0.731603  Biso 1.000000     H
    H   1.0     0.046325     0.463467     0.721446  Biso 1.000000     H
    H   1.0     0.546335     0.463452     0.721437  Biso 1.000000     H
    H   1.0     0.428180     0.461456     0.513242  Biso 1.000000     H
    H   1.0     0.928189     0.461467     0.513247  Biso 1.000000     H
    H   1.0     0.422980     0.296440     0.513061  Biso 1.000000     H
    H   1.0     0.922991     0.296450     0.513066  Biso 1.000000     H
    H   1.0     0.411094     0.873344     0.409315  Biso 1.000000     H
    H   1.0     0.911099     0.873354     0.409319  Biso 1.000000     H
    H   1.0     0.340854     0.898999     0.454747  Biso 1.000000     H
    H   1.0     0.840857     0.899006     0.454748  Biso 1.000000     H
    H   1.0     0.358324     0.787682     0.428118  Biso 1.000000     H
    H   1.0     0.858331     0.787689     0.428122  Biso 1.000000     H
    H   1.0     0.177157     0.807533     0.202426  Biso 1.000000     H
    H   1.0     0.677167     0.807527     0.202422  Biso 1.000000     H
    H   1.0     0.168772     0.914547     0.249849  Biso 1.000000     H
    H   1.0     0.668778     0.914540     0.249844  Biso 1.000000     H
    H   1.0     0.179786     0.903472     0.131958  Biso 1.000000     H
    H   1.0     0.679794     0.903465     0.131953  Biso 1.000000     H
    H   1.0     0.296624     0.701940     0.268393  Biso 1.000000     H
    H   1.0     0.796632     0.701941     0.268393  Biso 1.000000     H
    H   1.0     0.296346     0.536631     0.278543  Biso 1.000000     H
    H   1.0     0.796353     0.536632     0.278540  Biso 1.000000     H
    H   1.0     0.178136     0.538458     0.486790  Biso 1.000000     H
    H   1.0     0.678142     0.538457     0.486786  Biso 1.000000     H
    H   1.0     0.172908     0.703467     0.486995  Biso 1.000000     H
    H   1.0     0.672914     0.703466     0.486992  Biso 1.000000     H
    H   1.0     0.286088     0.090659     0.373263  Biso 1.000000     H
    H   1.0     0.786095     0.090656     0.373275  Biso 1.000000     H
    H   1.0     0.215842     0.045243     0.398955  Biso 1.000000     H
    H   1.0     0.715847     0.045244     0.398964  Biso 1.000000     H
    H   1.0     0.233335     0.071821     0.287638  Biso 1.000000     H
    H   1.0     0.733345     0.071811     0.287646  Biso 1.000000     H
    H   1.0     0.052172     0.297603     0.307546  Biso 1.000000     H
    H   1.0     0.552182     0.297599     0.307531  Biso 1.000000     H
    H   1.0     0.043759     0.250178     0.414538  Biso 1.000000     H
    H   1.0     0.543766     0.250180     0.414527  Biso 1.000000     H
    H   1.0     0.054775     0.368083     0.403489  Biso 1.000000     H
    H   1.0     0.554783     0.368085     0.403472  Biso 1.000000     H
    H   1.0     0.171617     0.231631     0.201894  Biso 1.000000     H
    H   1.0     0.671626     0.231630     0.201892  Biso 1.000000     H
    H   1.0     0.171318     0.221501     0.036604  Biso 1.000000     H
    H   1.0     0.671326     0.221503     0.036602  Biso 1.000000     H
    H   1.0     0.053131     0.013205     0.038499  Biso 1.000000     H
    H   1.0     0.553137     0.013211     0.038494  Biso 1.000000     H
    H   1.0     0.047919     0.012990     0.203490  Biso 1.000000     H
    H   1.0     0.547926     0.012992     0.203486  Biso 1.000000     H
    H   1.0     0.036133     0.909393     0.626686  Biso 1.000000     H
    H   1.0     0.536141     0.909391     0.626680  Biso 1.000000     H
    H   1.0     0.465911     0.954782     0.601025  Biso 1.000000     H
    H   1.0     0.965920     0.954786     0.601027  Biso 1.000000     H
    H   1.0     0.483373     0.928208     0.712331  Biso 1.000000     H
    H   1.0     0.983377     0.928206     0.712332  Biso 1.000000     H
    H   1.0     0.302149     0.702365     0.692442  Biso 1.000000     H
    H   1.0     0.802166     0.702369     0.692469  Biso 1.000000     H
    H   1.0     0.293798     0.749805     0.585458  Biso 1.000000     H
    H   1.0     0.793801     0.749793     0.585481  Biso 1.000000     H
    H   1.0     0.304777     0.631902     0.596489  Biso 1.000000     H
    H   1.0     0.804785     0.631893     0.596526  Biso 1.000000     H
    H   1.0     0.421630     0.768399     0.798074  Biso 1.000000     H
    H   1.0     0.921639     0.768399     0.798077  Biso 1.000000     H
    H   1.0     0.421338     0.778555     0.963364  Biso 1.000000     H
    H   1.0     0.921345     0.778552     0.963368  Biso 1.000000     H
    H   1.0     0.303177     0.986781     0.961575  Biso 1.000000     H
    H   1.0     0.803186     0.986780     0.961580  Biso 1.000000     H
    H   1.0     0.297964     0.986977     0.796585  Biso 1.000000     H
    H   1.0     0.797974     0.986978     0.796590  Biso 1.000000     H
    C   1.0     0.260331     0.357260     0.093093  Biso 1.000000     C
    C   1.0     0.760341     0.357269     0.093091  Biso 1.000000     C
    C   1.0     0.281520     0.370607     0.187907  Biso 1.000000     C
    C   1.0     0.781529     0.370612     0.187906  Biso 1.000000     C
    C   1.0     0.342448     0.365480     0.206847  Biso 1.000000     C
    C   1.0     0.842457     0.365481     0.206846  Biso 1.000000     C
    C   1.0     0.367988     0.382192     0.292361  Biso 1.000000     C
    C   1.0     0.867996     0.382190     0.292361  Biso 1.000000     C
    C   1.0     0.433276     0.377322     0.302426  Biso 1.000000     C
    C   1.0     0.933284     0.377311     0.302429  Biso 1.000000     C
    C   1.0     0.389133     0.217872     0.121388  Biso 1.000000     C
    C   1.0     0.889141     0.217871     0.121389  Biso 1.000000     C
    C   1.0     0.354948     0.168602     0.181456  Biso 1.000000     C
    C   1.0     0.854956     0.168602     0.181456  Biso 1.000000     C
    C   1.0     0.355149     0.076291     0.176238  Biso 1.000000     C
    C   1.0     0.855157     0.076291     0.176239  Biso 1.000000     C
    C   1.0     0.420879     0.077208     0.060126  Biso 1.000000     C
    C   1.0     0.920887     0.077207     0.060128  Biso 1.000000     C
    C   1.0     0.423544     0.169743     0.060263  Biso 1.000000     C
    C   1.0     0.923553     0.169743     0.060265  Biso 1.000000     C
    C   1.0     0.010263     0.642772     0.906876  Biso 1.000000     C
    C   1.0     0.510271     0.642766     0.906873  Biso 1.000000     C
    C   1.0     0.031475     0.629430     0.812053  Biso 1.000000     C
    C   1.0     0.531484     0.629416     0.812052  Biso 1.000000     C
    C   1.0     0.092409     0.634561     0.793087  Biso 1.000000     C
    C   1.0     0.592416     0.634569     0.793082  Biso 1.000000     C
    C   1.0     0.117967     0.617849     0.707563  Biso 1.000000     C
    C   1.0     0.617975     0.617857     0.707558  Biso 1.000000     C
    C   1.0     0.183258     0.622719     0.697469  Biso 1.000000     C
    C   1.0     0.683265     0.622756     0.697458  Biso 1.000000     C
    C   1.0     0.139083     0.782187     0.878537  Biso 1.000000     C
    C   1.0     0.639090     0.782201     0.878527  Biso 1.000000     C
    C   1.0     0.104916     0.831441     0.818495  Biso 1.000000     C
    C   1.0     0.604924     0.831454     0.818482  Biso 1.000000     C
    C   1.0     0.105116     0.923751     0.823734  Biso 1.000000     C
    C   1.0     0.605127     0.923764     0.823716  Biso 1.000000     C
    C   1.0     0.170818     0.922863     0.939814  Biso 1.000000     C
    C   1.0     0.670828     0.922877     0.939799  Biso 1.000000     C
    C   1.0     0.173482     0.830330     0.939654  Biso 1.000000     C
    C   1.0     0.673488     0.830344     0.939644  Biso 1.000000     C
    C   1.0     0.135307     0.406916     0.857222  Biso 1.000000     C
    C   1.0     0.635319     0.406924     0.857235  Biso 1.000000     C
    C   1.0     0.156505     0.312101     0.870589  Biso 1.000000     C
    C   1.0     0.656515     0.312107     0.870596  Biso 1.000000     C
    C   1.0     0.217434     0.293157     0.865435  Biso 1.000000     C
    C   1.0     0.717443     0.293158     0.865431  Biso 1.000000     C
    C   1.0     0.242978     0.207643     0.882153  Biso 1.000000     C
    C   1.0     0.742987     0.207641     0.882137  Biso 1.000000     C
    C   1.0     0.308269     0.197582     0.877293  Biso 1.000000     C
    C   1.0     0.808277     0.197572     0.877245  Biso 1.000000     C
    C   1.0     0.264115     0.378614     0.717814  Biso 1.000000     C
    C   1.0     0.764122     0.378615     0.717809  Biso 1.000000     C
    C   1.0     0.229924     0.318551     0.668567  Biso 1.000000     C
    C   1.0     0.729931     0.318552     0.668563  Biso 1.000000     C
    C   1.0     0.230120     0.323780     0.576270  Biso 1.000000     C
    C   1.0     0.730126     0.323781     0.576266  Biso 1.000000     C
    C   1.0     0.295859     0.439888     0.577157  Biso 1.000000     C
    C   1.0     0.795865     0.439888     0.577151  Biso 1.000000     C
    C   1.0     0.298528     0.439742     0.669677  Biso 1.000000     C
    C   1.0     0.798536     0.439742     0.669671  Biso 1.000000     C
    C   1.0     0.385282     0.593107     0.142746  Biso 1.000000     C
    C   1.0     0.885290     0.593105     0.142748  Biso 1.000000     C
    C   1.0     0.406493     0.687940     0.129412  Biso 1.000000     C
    C   1.0     0.906501     0.687938     0.129416  Biso 1.000000     C
    C   1.0     0.467423     0.706913     0.134561  Biso 1.000000     C
    C   1.0     0.967432     0.706910     0.134559  Biso 1.000000     C
    C   1.0     0.492982     0.792443     0.117836  Biso 1.000000     C
    C   1.0     0.992990     0.792441     0.117835  Biso 1.000000     C
    C   1.0     0.058263     0.802541     0.122711  Biso 1.000000     C
    C   1.0     0.558271     0.802545     0.122719  Biso 1.000000     C
    C   1.0     0.014087     0.621455     0.282124  Biso 1.000000     C
    C   1.0     0.514094     0.621456     0.282128  Biso 1.000000     C
    C   1.0     0.479922     0.681501     0.331429  Biso 1.000000     C
    C   1.0     0.979932     0.681500     0.331425  Biso 1.000000     C
    C   1.0     0.480130     0.676266     0.423726  Biso 1.000000     C
    C   1.0     0.980140     0.676267     0.423722  Biso 1.000000     C
    C   1.0     0.045838     0.560183     0.422735  Biso 1.000000     C
    C   1.0     0.545844     0.560182     0.422738  Biso 1.000000     C
    C   1.0     0.048494     0.560337     0.330211  Biso 1.000000     C
    C   1.0     0.548501     0.560337     0.330214  Biso 1.000000     C
    C   1.0     0.114732     0.142760     0.593099  Biso 1.000000     C
    C   1.0     0.614736     0.142740     0.593087  Biso 1.000000     C
    C   1.0     0.093518     0.129411     0.687918  Biso 1.000000     C
    C   1.0     0.593525     0.129427     0.687913  Biso 1.000000     C
    C   1.0     0.032587     0.134562     0.706893  Biso 1.000000     C
    C   1.0     0.532592     0.134549     0.706882  Biso 1.000000     C
    C   1.0     0.007026     0.117842     0.792413  Biso 1.000000     C
    C   1.0     0.507034     0.117831     0.792404  Biso 1.000000     C
    C   1.0     0.441743     0.122674     0.802501  Biso 1.000000     C
    C   1.0     0.941754     0.122740     0.802521  Biso 1.000000     C
    C   1.0     0.485924     0.282130     0.621430  Biso 1.000000     C
    C   1.0     0.985933     0.282144     0.621437  Biso 1.000000     C
    C   1.0     0.020085     0.331450     0.681474  Biso 1.000000     C
    C   1.0     0.520093     0.331436     0.681465  Biso 1.000000     C
    C   1.0     0.019876     0.423759     0.676235  Biso 1.000000     C
    C   1.0     0.519885     0.423745     0.676226  Biso 1.000000     C
    C   1.0     0.454178     0.422759     0.560155  Biso 1.000000     C
    C   1.0     0.954186     0.422770     0.560162  Biso 1.000000     C
    C   1.0     0.451522     0.330223     0.560314  Biso 1.000000     C
    C   1.0     0.951531     0.330234     0.560320  Biso 1.000000     C
    C   1.0     0.364685     0.857287     0.406884  Biso 1.000000     C
    C   1.0     0.864690     0.857295     0.406886  Biso 1.000000     C
    C   1.0     0.343493     0.870649     0.312079  Biso 1.000000     C
    C   1.0     0.843500     0.870652     0.312080  Biso 1.000000     C
    C   1.0     0.282565     0.865492     0.293141  Biso 1.000000     C
    C   1.0     0.782571     0.865493     0.293140  Biso 1.000000     C
    C   1.0     0.257025     0.882192     0.207633  Biso 1.000000     C
    C   1.0     0.757033     0.882191     0.207631  Biso 1.000000     C
    C   1.0     0.191736     0.877291     0.197568  Biso 1.000000     C
    C   1.0     0.691744     0.877286     0.197564  Biso 1.000000     C
    C   1.0     0.235881     0.717868     0.378601  Biso 1.000000     C
    C   1.0     0.735887     0.717868     0.378598  Biso 1.000000     C
    C   1.0     0.270072     0.668612     0.318543  Biso 1.000000     C
    C   1.0     0.770079     0.668612     0.318540  Biso 1.000000     C
    C   1.0     0.269879     0.576303     0.323770  Biso 1.000000     C
    C   1.0     0.769885     0.576303     0.323766  Biso 1.000000     C
    C   1.0     0.204141     0.577194     0.439871  Biso 1.000000     C
    C   1.0     0.704146     0.577194     0.439866  Biso 1.000000     C
    C   1.0     0.201469     0.669727     0.439725  Biso 1.000000     C
    C   1.0     0.701475     0.669726     0.439722  Biso 1.000000     C
    C   1.0     0.239683     0.093088     0.357227  Biso 1.000000     C
    C   1.0     0.739691     0.093085     0.357234  Biso 1.000000     C
    C   1.0     0.218490     0.187914     0.370583  Biso 1.000000     C
    C   1.0     0.718498     0.187912     0.370579  Biso 1.000000     C
    C   1.0     0.157564     0.206865     0.365446  Biso 1.000000     C
    C   1.0     0.657572     0.206864     0.365443  Biso 1.000000     C
    C   1.0     0.132019     0.292388     0.382168  Biso 1.000000     C
    C   1.0     0.632027     0.292388     0.382159  Biso 1.000000     C
    C   1.0     0.066731     0.302463     0.377291  Biso 1.000000     C
    C   1.0     0.566740     0.302463     0.377278  Biso 1.000000     C
    C   1.0     0.110883     0.121404     0.217853  Biso 1.000000     C
    C   1.0     0.610891     0.121405     0.217850  Biso 1.000000     C
    C   1.0     0.145064     0.181478     0.168583  Biso 1.000000     C
    C   1.0     0.645073     0.181479     0.168581  Biso 1.000000     C
    C   1.0     0.144859     0.176259     0.076284  Biso 1.000000     C
    C   1.0     0.644867     0.176262     0.076282  Biso 1.000000     C
    C   1.0     0.079134     0.060134     0.077213  Biso 1.000000     C
    C   1.0     0.579140     0.060139     0.077210  Biso 1.000000     C
    C   1.0     0.076471     0.060272     0.169737  Biso 1.000000     C
    C   1.0     0.576479     0.060275     0.169733  Biso 1.000000     C
    C   1.0     0.489732     0.906943     0.642738  Biso 1.000000     C
    C   1.0     0.989740     0.906944     0.642739  Biso 1.000000     C
    C   1.0     0.468521     0.812110     0.629394  Biso 1.000000     C
    C   1.0     0.968529     0.812113     0.629385  Biso 1.000000     C
    C   1.0     0.407588     0.793144     0.634543  Biso 1.000000     C
    C   1.0     0.907596     0.793144     0.634545  Biso 1.000000     C
    C   1.0     0.382033     0.707611     0.617825  Biso 1.000000     C
    C   1.0     0.882041     0.707611     0.617829  Biso 1.000000     C
    C   1.0     0.316741     0.697520     0.622696  Biso 1.000000     C
    C   1.0     0.816750     0.697516     0.622720  Biso 1.000000     C
    C   1.0     0.360913     0.878594     0.782167  Biso 1.000000     C
    C   1.0     0.860922     0.878594     0.782172  Biso 1.000000     C
    C   1.0     0.395086     0.818544     0.831407  Biso 1.000000     C
    C   1.0     0.895095     0.818543     0.831411  Biso 1.000000     C
    C   1.0     0.394885     0.823776     0.923706  Biso 1.000000     C
    C   1.0     0.894893     0.823773     0.923709  Biso 1.000000     C
    C   1.0     0.329173     0.939864     0.922833  Biso 1.000000     C
    C   1.0     0.829182     0.939863     0.922838  Biso 1.000000     C
    C   1.0     0.326510     0.939713     0.830313  Biso 1.000000     C
    C   1.0     0.826519     0.939714     0.830318  Biso 1.000000     C
    N   1.0     0.386778     0.029889     0.116251  Biso 1.000000     N
    N   1.0     0.886787     0.029888     0.116254  Biso 1.000000     N
    N   1.0     0.136740     0.970166     0.883704  Biso 1.000000     N
    N   1.0     0.636741     0.970178     0.883698  Biso 1.000000     N
    N   1.0     0.261753     0.383766     0.529861  Biso 1.000000     N
    N   1.0     0.761762     0.383761     0.529855  Biso 1.000000     N
    N   1.0     0.011746     0.616283     0.470084  Biso 1.000000     N
    N   1.0     0.511754     0.616284     0.470088  Biso 1.000000     N
    N   1.0     0.488265     0.470113     0.616248  Biso 1.000000     N
    N   1.0     0.988275     0.470125     0.616251  Biso 1.000000     N
    N   1.0     0.238250     0.529891     0.383755  Biso 1.000000     N
    N   1.0     0.738262     0.529892     0.383760  Biso 1.000000     N
    N   1.0     0.113234     0.116261     0.029893  Biso 1.000000     N
    N   1.0     0.613244     0.116262     0.029891  Biso 1.000000     N
    N   1.0     0.363264     0.883757     0.970122  Biso 1.000000     N
    N   1.0     0.863274     0.883757     0.970126  Biso 1.000000     N
    O   1.0     0.242487     0.385735     0.245771  Biso 1.000000     O
    O   1.0     0.742495     0.385740     0.245769  Biso 1.000000     O
    O   1.0     0.339872     0.401984     0.362737  Biso 1.000000     O
    O   1.0     0.839881     0.401983     0.362738  Biso 1.000000     O
    O   1.0     0.492463     0.614295     0.754199  Biso 1.000000     O
    O   1.0     0.992470     0.614315     0.754200  Biso 1.000000     O
    O   1.0     0.089862     0.598073     0.637195  Biso 1.000000     O
    O   1.0     0.589870     0.598078     0.637191  Biso 1.000000     O
    O   1.0     0.117474     0.254232     0.885750  Biso 1.000000     O
    O   1.0     0.617484     0.254239     0.885764  Biso 1.000000     O
    O   1.0     0.214861     0.137258     0.901938  Biso 1.000000     O
    O   1.0     0.714869     0.137261     0.901936  Biso 1.000000     O
    O   1.0     0.367475     0.745793     0.114284  Biso 1.000000     O
    O   1.0     0.867483     0.745792     0.114290  Biso 1.000000     O
    O   1.0     0.464880     0.862805     0.098037  Biso 1.000000     O
    O   1.0     0.964888     0.862803     0.098035  Biso 1.000000     O
    O   1.0     0.132535     0.114294     0.745764  Biso 1.000000     O
    O   1.0     0.632543     0.114314     0.745758  Biso 1.000000     O
    O   1.0     0.035127     0.098048     0.862767  Biso 1.000000     O
    O   1.0     0.535135     0.098034     0.862758  Biso 1.000000     O
    O   1.0     0.382527     0.885793     0.254216  Biso 1.000000     O
    O   1.0     0.882534     0.885796     0.254217  Biso 1.000000     O
    O   1.0     0.285143     0.901976     0.137255  Biso 1.000000     O
    O   1.0     0.785151     0.901977     0.137254  Biso 1.000000     O
    O   1.0     0.257521     0.245783     0.385719  Biso 1.000000     O
    O   1.0     0.757529     0.245781     0.385713  Biso 1.000000     O
    O   1.0     0.160134     0.362770     0.401961  Biso 1.000000     O
    O   1.0     0.660141     0.362768     0.401962  Biso 1.000000     O
    O   1.0     0.007534     0.754254     0.614245  Biso 1.000000     O
    O   1.0     0.507543     0.754251     0.614256  Biso 1.000000     O
    O   1.0     0.410140     0.637236     0.598036  Biso 1.000000     O
    O   1.0     0.910148     0.637236     0.598040  Biso 1.000000     O
    S   1.0     0.389691     0.335332     0.118419  Biso 1.000000     S
    S   1.0     0.889700     0.335331     0.118419  Biso 1.000000     S
    S   1.0     0.139637     0.664727     0.881490  Biso 1.000000     S
    S   1.0     0.639643     0.664742     0.881484  Biso 1.000000     S
    S   1.0     0.264679     0.381587     0.835258  Biso 1.000000     S
    S   1.0     0.764688     0.381586     0.835253  Biso 1.000000     S
    S   1.0     0.014640     0.618495     0.164680  Biso 1.000000     S
    S   1.0     0.514648     0.618498     0.164683  Biso 1.000000     S
    S   1.0     0.485368     0.164668     0.618480  Biso 1.000000     S
    S   1.0     0.985381     0.164683     0.618490  Biso 1.000000     S
    S   1.0     0.235317     0.835328     0.381564  Biso 1.000000     S
    S   1.0     0.735323     0.835328     0.381562  Biso 1.000000     S
    S   1.0     0.110324     0.118430     0.335296  Biso 1.000000     S
    S   1.0     0.610332     0.118429     0.335293  Biso 1.000000     S
    S   1.0     0.360359     0.881558     0.664723  Biso 1.000000     S
    S   1.0     0.860367     0.881558     0.664728  Biso 1.000000     S
   Zn   1.0     0.375010     0.887165     0.112867  Biso 1.000000    Zn
   Zn   1.0     0.875019     0.887165     0.112869  Biso 1.000000    Zn
   Zn   1.0     0.124995     0.112873     0.887124  Biso 1.000000    Zn
   Zn   1.0     0.625001     0.112880     0.887121  Biso 1.000000    Zn
   Zn   1.0     0.250003     0.387148     0.387128  Biso 1.000000    Zn
   Zn   1.0     0.750011     0.387147     0.387127  Biso 1.000000    Zn
   Zn   1.0    -0.000002     0.612886     0.612843  Biso 1.000000    Zn
   Zn   1.0     0.500006     0.612881     0.612844  Biso 1.000000    Zn
