#======================================================================

# CRYSTAL DATA

#----------------------------------------------------------------------

data_VESTA_phase_1


_pd_phase_name                         MOF
_cell_length_a                         13.97100
_cell_length_b                         15.66100
_cell_length_c                         19.60600
_cell_angle_alpha                      89.99200
_cell_angle_beta                       90.00500
_cell_angle_gamma                      90.01400
_symmetry_space_group_name_H-M         "P 1"
_symmetry_Int_Tables_number            1

loop_
_symmetry_equiv_pos_as_xyz
   "x, y, z"

loop_
   _atom_site_label
   _atom_site_occupancy
   _atom_site_fract_x
   _atom_site_fract_y
   _atom_site_fract_z
   _atom_site_adp_type
   _atom_site_B_iso_or_equiv
   _atom_site_type_symbol
    H   1.0     0.743301     0.964555     0.890264  Biso 1.000000     H
    H   1.0     0.657772     0.912860     0.296049  Biso 1.000000     H
    H   1.0     0.554576     0.768629     0.362325  Biso 1.000000     H
    H   1.0     0.763034     0.828571     0.888956  Biso 1.000000     H
    H   1.0     0.911525     0.786382     0.942091  Biso 1.000000     H
    H   1.0     0.061318     0.874456     0.093604  Biso 1.000000     H
    H   1.0     0.889930     0.951479     0.765573  Biso 1.000000     H
    H   1.0     0.971921     0.894413     0.661941  Biso 1.000000     H
    H   1.0     0.115294     0.942086     0.987196  Biso 1.000000     H
    H   1.0     0.821968     0.695333     0.897337  Biso 1.000000     H
    H   1.0     0.973724     0.604161     0.678890  Biso 1.000000     H
    H   1.0     0.002298     0.018278     0.070698  Biso 1.000000     H
    H   1.0     0.994040     0.058069     0.986250  Biso 1.000000     H
    H   1.0     0.839039     0.009172     0.971940  Biso 1.000000     H
    H   1.0     0.835490     0.995055     0.061544  Biso 1.000000     H
    H   1.0     0.706789     0.699546     0.374395  Biso 1.000000     H
    H   1.0     0.988965     0.954427     0.890810  Biso 1.000000     H
    H   1.0     0.044410     0.852869     0.896880  Biso 1.000000     H
    H   1.0     0.658036     0.940117     0.170426  Biso 1.000000     H
    H   1.0     0.811231     0.549769     0.103016  Biso 1.000000     H
    H   1.0     0.776499     0.622783     0.312592  Biso 1.000000     H
    H   1.0     0.923193     0.495668     0.765612  Biso 1.000000     H
    H   1.0     0.749041     0.690928     0.065039  Biso 1.000000     H
    H   1.0     0.896753     0.860739     0.107188  Biso 1.000000     H
    H   1.0     0.903380     0.769091     0.053879  Biso 1.000000     H
    H   1.0     0.828774     0.490147     0.980276  Biso 1.000000     H
    H   1.0     0.895344     0.588055     0.972587  Biso 1.000000     H
    H   1.0     0.768628     0.587276     0.956313  Biso 1.000000     H
    H   1.0     0.892415     0.417863     0.292389  Biso 1.000000     H
    H   1.0     0.913031     0.528218     0.313045  Biso 1.000000     H
    H   1.0     0.796689     0.481467     0.325806  Biso 1.000000     H
    H   1.0     0.763710     0.886247     0.386996  Biso 1.000000     H
    H   1.0     0.724660     0.753816     0.495497  Biso 1.000000     H
    H   1.0     0.714972     0.865713     0.499696  Biso 1.000000     H
    H   1.0     0.009502     0.849803     0.394999  Biso 1.000000     H
    H   1.0     0.918691     0.924587     0.373788  Biso 1.000000     H
    H   1.0     0.853775     0.667239     0.406397  Biso 1.000000     H
    H   1.0     0.973929     0.699841     0.396997  Biso 1.000000     H
    H   1.0     0.986071     0.733600     0.514614  Biso 1.000000     H
    H   1.0     0.875979     0.679458     0.524650  Biso 1.000000     H
    H   1.0     0.855746     0.825693     0.569322  Biso 1.000000     H
    H   1.0     0.990441     0.890306     0.508623  Biso 1.000000     H
    H   1.0     0.757470     0.036087     0.390461  Biso 1.000000     H
    H   1.0     0.842454     0.087231     0.795876  Biso 1.000000     H
    H   1.0     0.945432     0.231084     0.862037  Biso 1.000000     H
    H   1.0     0.737058     0.172198     0.388824  Biso 1.000000     H
    H   1.0     0.588585     0.213793     0.441890  Biso 1.000000     H
    H   1.0     0.439064     0.125757     0.593486  Biso 1.000000     H
    H   1.0     0.611463     0.048617     0.265286  Biso 1.000000     H
    H   1.0     0.529308     0.105228     0.161521  Biso 1.000000     H
    H   1.0     0.385072     0.058048     0.487119  Biso 1.000000     H
    H   1.0     0.676426     0.305104     0.397400  Biso 1.000000     H
    H   1.0     0.525307     0.395444     0.178500  Biso 1.000000     H
    H   1.0     0.498174     0.982120     0.570739  Biso 1.000000     H
    H   1.0     0.506365     0.942138     0.486371  Biso 1.000000     H
    H   1.0     0.661300     0.991155     0.471862  Biso 1.000000     H
    H   1.0     0.664995     0.005314     0.561458  Biso 1.000000     H
    H   1.0     0.793324     0.300554     0.874114  Biso 1.000000     H
    H   1.0     0.511314     0.045655     0.390731  Biso 1.000000     H
    H   1.0     0.455866     0.147200     0.396724  Biso 1.000000     H
    H   1.0     0.842291     0.059972     0.670239  Biso 1.000000     H
    H   1.0     0.689361     0.450328     0.602610  Biso 1.000000     H
    H   1.0     0.722993     0.377144     0.812263  Biso 1.000000     H
    H   1.0     0.574030     0.504159     0.265542  Biso 1.000000     H
    H   1.0     0.751654     0.309221     0.564757  Biso 1.000000     H
    H   1.0     0.603585     0.139699     0.607026  Biso 1.000000     H
    H   1.0     0.596828     0.231274     0.553614  Biso 1.000000     H
    H   1.0     0.666801     0.509846     0.480653  Biso 1.000000     H
    H   1.0     0.602088     0.410997     0.472735  Biso 1.000000     H
    H   1.0     0.728761     0.413764     0.456352  Biso 1.000000     H
    H   1.0     0.605411     0.581417     0.791567  Biso 1.000000     H
    H   1.0     0.585145     0.470838     0.811641  Biso 1.000000     H
    H   1.0     0.700890     0.518129     0.825790  Biso 1.000000     H
    H   1.0     0.736116     0.113929     0.886825  Biso 1.000000     H
    H   1.0     0.775491     0.246331     0.995272  Biso 1.000000     H
    H   1.0     0.785114     0.134427    -0.000518  Biso 1.000000     H
    H   1.0     0.490427     0.150663     0.894979  Biso 1.000000     H
    H   1.0     0.581075     0.075785     0.873662  Biso 1.000000     H
    H   1.0     0.646454     0.333025     0.906327  Biso 1.000000     H
    H   1.0     0.526223     0.300611     0.896950  Biso 1.000000     H
    H   1.0     0.514131     0.266680     0.014555  Biso 1.000000     H
    H   1.0     0.624273     0.320745     0.024583  Biso 1.000000     H
    H   1.0     0.644462     0.174468     0.069187  Biso 1.000000     H
    H   1.0     0.509656     0.109944     0.008575  Biso 1.000000     H
    H   1.0     0.257587     0.464467     0.609690  Biso 1.000000     H
    H   1.0     0.342179     0.412956     0.203798  Biso 1.000000     H
    H   1.0     0.445415     0.268690     0.137607  Biso 1.000000     H
    H   1.0     0.236987     0.328441     0.610884  Biso 1.000000     H
    H   1.0     0.088296     0.287162     0.557761  Biso 1.000000     H
    H   1.0     0.938988     0.376472     0.406352  Biso 1.000000     H
    H   1.0     0.110222     0.451609     0.734332  Biso 1.000000     H
    H   1.0     0.028032     0.394499     0.837891  Biso 1.000000     H
    H   1.0     0.885358     0.443873     0.512893  Biso 1.000000     H
    H   1.0     0.177927     0.195548     0.602488  Biso 1.000000     H
    H   1.0     0.026087     0.104269     0.820922  Biso 1.000000     H
    H   1.0     0.998749     0.519870     0.429553  Biso 1.000000     H
    H   1.0     0.007330     0.559378     0.514056  Biso 1.000000     H
    H   1.0     0.162004     0.509710     0.528235  Biso 1.000000     H
    H   1.0     0.165418     0.495868     0.438605  Biso 1.000000     H
    H   1.0     0.293269     0.199463     0.125735  Biso 1.000000     H
    H   1.0     0.011689     0.455306     0.609356  Biso 1.000000     H
    H   1.0     0.955714     0.353990     0.602972  Biso 1.000000     H
    H   1.0     0.341976     0.440412     0.329392  Biso 1.000000     H
    H   1.0     0.188762     0.050141     0.397334  Biso 1.000000     H
    H   1.0     0.223519     0.122777     0.187656  Biso 1.000000     H
    H   1.0     0.076691     0.995793     0.734238  Biso 1.000000     H
    H   1.0     0.250929     0.191407     0.435117  Biso 1.000000     H
    H   1.0     0.103462     0.361893     0.392750  Biso 1.000000     H
    H   1.0     0.096172     0.270167     0.445959  Biso 1.000000     H
    H   1.0     0.171483     0.990291     0.519656  Biso 1.000000     H
    H   1.0     0.104848     0.088153     0.527234  Biso 1.000000     H
    H   1.0     0.231509     0.087489     0.543680  Biso 1.000000     H
    H   1.0     0.107629     0.917863     0.208090  Biso 1.000000     H
    H   1.0     0.087134     0.000000     0.187280  Biso 1.000000     H
    H   1.0     0.203463     0.981409     0.174684  Biso 1.000000     H
    H   1.0     0.236133     0.386068     0.112898  Biso 1.000000     H
    H   1.0     0.275138     0.253465     0.004546  Biso 1.000000     H
    H   1.0     0.284857     0.365363     0.000000  Biso 1.000000     H
    H   1.0     0.990375     0.349298     0.105067  Biso 1.000000     H
    H   1.0     0.081117     0.424211     0.126223  Biso 1.000000     H
    H   1.0     0.146297     0.166937     0.093705  Biso 1.000000     H
    H   1.0     0.026111     0.199366     0.103194  Biso 1.000000     H
    H   1.0     0.013741     0.233125     0.985558  Biso 1.000000     H
    H   1.0     0.123832     0.179050     0.975466  Biso 1.000000     H
    H   1.0     0.143987     0.325270     0.930705  Biso 1.000000     H
    H   1.0     0.009357     0.389870     0.991418  Biso 1.000000     H
    H   1.0     0.241990     0.536057     0.109559  Biso 1.000000     H
    H   1.0     0.157457     0.587174     0.703887  Biso 1.000000     H
    H   1.0     0.054495     0.731040     0.637846  Biso 1.000000     H
    H   1.0     0.262880     0.672192     0.111032  Biso 1.000000     H
    H   1.0     0.411517     0.713309     0.058014  Biso 1.000000     H
    H   1.0     0.561246     0.625242     0.906782  Biso 1.000000     H
    H   1.0     0.388320     0.548511     0.234691  Biso 1.000000     H
    H   1.0     0.470651     0.605130     0.338381  Biso 1.000000     H
    H   1.0     0.614846     0.557427     0.013201  Biso 1.000000     H
    H   1.0     0.323607     0.804912     0.102442  Biso 1.000000     H
    H   1.0     0.474767     0.895341     0.321311  Biso 1.000000     H
    H   1.0     0.501765     0.481587     0.929432  Biso 1.000000     H
    H   1.0     0.493505     0.441536     0.013793  Biso 1.000000     H
    H   1.0     0.338641     0.490700     0.028367  Biso 1.000000     H
    H   1.0     0.334933     0.504613     0.938739  Biso 1.000000     H
    H   1.0     0.206572     0.800628     0.625855  Biso 1.000000     H
    H   1.0     0.488232     0.545062     0.109412  Biso 1.000000     H
    H   1.0     0.543939     0.646532     0.103527  Biso 1.000000     H
    H   1.0     0.157655     0.559648     0.829493  Biso 1.000000     H
    H   1.0     0.310620     0.949946     0.897520  Biso 1.000000     H
    H   1.0     0.276901     0.877155     0.687803  Biso 1.000000     H
    H   1.0     0.426004     0.004053     0.234259  Biso 1.000000     H
    H   1.0     0.248354     0.808704     0.935252  Biso 1.000000     H
    H   1.0     0.396746     0.638887     0.892983  Biso 1.000000     H
    H   1.0     0.403303     0.730618     0.946222  Biso 1.000000     H
    H   1.0     0.332936     0.009694     0.019194  Biso 1.000000     H
    H   1.0     0.397715     0.910880     0.027089  Biso 1.000000     H
    H   1.0     0.271079     0.913574     0.043597  Biso 1.000000     H
    H   1.0     0.394479     0.081428     0.708642  Biso 1.000000     H
    H   1.0     0.414701    -0.029110     0.688459  Biso 1.000000     H
    H   1.0     0.298950     0.018172     0.674424  Biso 1.000000     H
    H   1.0     0.263840     0.614057     0.613023  Biso 1.000000     H
    H   1.0     0.224674     0.746685     0.504677  Biso 1.000000     H
    H   1.0     0.214883     0.634814     0.500366  Biso 1.000000     H
    H   1.0     0.509540     0.650919     0.605043  Biso 1.000000     H
    H   1.0     0.418883     0.575978     0.626305  Biso 1.000000     H
    H   1.0     0.353520     0.833213     0.593682  Biso 1.000000     H
    H   1.0     0.473743     0.800852     0.603130  Biso 1.000000     H
    H   1.0     0.485991     0.767016     0.485521  Biso 1.000000     H
    H   1.0     0.375872     0.821058     0.475444  Biso 1.000000     H
    H   1.0     0.355683     0.674825     0.430775  Biso 1.000000     H
    H   1.0     0.490420     0.610302     0.491436  Biso 1.000000     H
    C   1.0     0.679417     0.862344     0.261136  Biso 1.000000     C
    C   1.0     0.827836     0.865851     0.876337  Biso 1.000000     C
    C   1.0     0.899146     0.855166     0.936169  Biso 1.000000     C
    C   1.0     0.705735     0.783302     0.286717  Biso 1.000000     C
    C   1.0     0.930531     0.712022     0.739966  Biso 1.000000     C
    C   1.0     0.028214     0.852530     0.045837  Biso 1.000000     C
    C   1.0     0.730808     0.739869     0.167579  Biso 1.000000     C
    C   1.0     0.871998     0.828865     0.811816  Biso 1.000000     C
    C   1.0     0.886135     0.739147     0.802414  Biso 1.000000     C
    C   1.0     0.901711     0.883220     0.760341  Biso 1.000000     C
    C   1.0     0.947274     0.850890     0.701825  Biso 1.000000     C
    C   1.0     0.039317     0.925328     0.992567  Biso 1.000000     C
    C   1.0     0.858455     0.676292     0.850830  Biso 1.000000     C
    C   1.0     0.941884     0.623323     0.727248  Biso 1.000000     C
    C   1.0     0.980877     0.001699     0.018310  Biso 1.000000     C
    C   1.0     0.873868     0.977196     0.014785  Biso 1.000000     C
    C   1.0     0.697822     0.768282     0.363320  Biso 1.000000     C
    C   1.0     0.875238     0.590669     0.837990  Biso 1.000000     C
    C   1.0     0.735685     0.719599     0.239067  Biso 1.000000     C
    C   1.0     0.997135     0.897792     0.923587  Biso 1.000000     C
    C   1.0     0.679266     0.878137     0.190778  Biso 1.000000     C
    C   1.0     0.789763     0.598259     0.139778  Biso 1.000000     C
    C   1.0     0.770759     0.638026     0.258763  Biso 1.000000     C
    C   1.0     0.914718     0.563830     0.774876  Biso 1.000000     C
    C   1.0     0.756506     0.676542     0.119186  Biso 1.000000     C
    C   1.0     0.799062     0.579067     0.210200  Biso 1.000000     C
    C   1.0     0.919480     0.837486     0.056887  Biso 1.000000     C
    C   1.0     0.084220     0.773477     0.023448  Biso 1.000000     C
    C   1.0     0.835366     0.550320     0.952113  Biso 1.000000     C
    C   1.0     0.860702     0.481765     0.293258  Biso 1.000000     C
    C   1.0     0.773724     0.819460     0.402853  Biso 1.000000     C
    C   1.0     0.760760     0.813809     0.481234  Biso 1.000000     C
    C   1.0     0.934869     0.868303     0.405104  Biso 1.000000     C
    C   1.0     0.904469     0.718685     0.418715  Biso 1.000000     C
    C   1.0     0.911313     0.732016     0.497109  Biso 1.000000     C
    C   1.0     0.860752     0.816507     0.514001  Biso 1.000000     C
    C   1.0     0.920845     0.889872     0.482096  Biso 1.000000     C
    C   1.0     0.877184     0.977539     0.496856  Biso 1.000000     C
    C   1.0     0.820779     0.137730     0.760940  Biso 1.000000     C
    C   1.0     0.672528     0.134535     0.376189  Biso 1.000000     C
    C   1.0     0.601117     0.145036     0.435992  Biso 1.000000     C
    C   1.0     0.794326     0.216742     0.786501  Biso 1.000000     C
    C   1.0     0.568964     0.287807     0.239690  Biso 1.000000     C
    C   1.0     0.472096     0.147716     0.545699  Biso 1.000000     C
    C   1.0     0.769485     0.260208     0.667339  Biso 1.000000     C
    C   1.0     0.628194     0.171286     0.311619  Biso 1.000000     C
    C   1.0     0.613282     0.260916     0.302242  Biso 1.000000     C
    C   1.0     0.599127     0.116799     0.260052  Biso 1.000000     C
    C   1.0     0.553482     0.148875     0.201460  Biso 1.000000     C
    C   1.0     0.461027     0.074881     0.492482  Biso 1.000000     C
    C   1.0     0.639989     0.323905     0.350810  Biso 1.000000     C
    C   1.0     0.556942     0.376441     0.226973  Biso 1.000000     C
    C   1.0     0.519524     0.998591     0.518317  Biso 1.000000     C
    C   1.0     0.626532     0.023126     0.514718  Biso 1.000000     C
    C   1.0     0.802211     0.231793     0.863104  Biso 1.000000     C
    C   1.0     0.622240     0.409399     0.338059  Biso 1.000000     C
    C   1.0     0.764346     0.280429     0.738820  Biso 1.000000     C
    C   1.0     0.503162     0.102320     0.423465  Biso 1.000000     C
    C   1.0     0.821032     0.121940     0.690579  Biso 1.000000     C
    C   1.0     0.710648     0.401815     0.639417  Biso 1.000000     C
    C   1.0     0.729040     0.361947     0.758447  Biso 1.000000     C
    C   1.0     0.583099     0.436051     0.274777  Biso 1.000000     C
    C   1.0     0.743990     0.323552     0.618897  Biso 1.000000     C
    C   1.0     0.700930     0.420922     0.709813  Biso 1.000000     C
    C   1.0     0.580819     0.162866     0.556701  Biso 1.000000     C
    C   1.0     0.415920     0.226679     0.523293  Biso 1.000000     C
    C   1.0     0.661309     0.449719     0.452323  Biso 1.000000     C
    C   1.0     0.637557     0.517687     0.792572  Biso 1.000000     C
    C   1.0     0.726244     0.180730     0.902667  Biso 1.000000     C
    C   1.0     0.739327     0.186360     0.981040  Biso 1.000000     C
    C   1.0     0.565032     0.132065     0.905006  Biso 1.000000     C
    C   1.0     0.595670     0.281644     0.918635  Biso 1.000000     C
    C   1.0     0.588876     0.268236    -0.002970  Biso 1.000000     C
    C   1.0     0.639385     0.183699     0.013873  Biso 1.000000     C
    C   1.0     0.579189     0.110403     0.981971  Biso 1.000000     C
    C   1.0     0.622917     0.022726    -0.003371  Biso 1.000000     C
    C   1.0     0.320583     0.362477     0.238781  Biso 1.000000     C
    C   1.0     0.172492     0.366045     0.623613  Biso 1.000000     C
    C   1.0     0.101043     0.355887     0.563783  Biso 1.000000     C
    C   1.0     0.294275     0.283376     0.213304  Biso 1.000000     C
    C   1.0     0.069342     0.212155     0.759847  Biso 1.000000     C
    C   1.0     0.971948     0.354258     0.454078  Biso 1.000000     C
    C   1.0     0.269216     0.240140     0.332502  Biso 1.000000     C
    C   1.0     0.128072     0.329028     0.688052  Biso 1.000000     C
    C   1.0     0.113787     0.239309     0.697414  Biso 1.000000     C
    C   1.0     0.098343     0.383352     0.739524  Biso 1.000000     C
    C   1.0     0.052674     0.351000     0.798005  Biso 1.000000     C
    C   1.0     0.961254     0.426863     0.507500  Biso 1.000000     C
    C   1.0     0.141433     0.176468     0.648992  Biso 1.000000     C
    C   1.0     0.057961     0.123449     0.772572  Biso 1.000000     C
    C   1.0     0.020111     0.503050     0.481906  Biso 1.000000     C
    C   1.0     0.126963     0.478050     0.485347  Biso 1.000000     C
    C   1.0     0.302168     0.268231     0.136714  Biso 1.000000     C
    C   1.0     0.124676     0.090832     0.661857  Biso 1.000000     C
    C   1.0     0.264347     0.219737     0.261043  Biso 1.000000     C
    C   1.0     0.003267     0.398857     0.576420  Biso 1.000000     C
    C   1.0     0.320752     0.378387     0.309120  Biso 1.000000     C
    C   1.0     0.210236     0.098572     0.360509  Biso 1.000000     C
    C   1.0     0.229268     0.138113     0.241465  Biso 1.000000     C
    C   1.0     0.085159     0.063973     0.724963  Biso 1.000000     C
    C   1.0     0.243493     0.176906     0.380988  Biso 1.000000     C
    C   1.0     0.200952     0.079239     0.290115  Biso 1.000000     C
    C   1.0     0.080559     0.338655     0.443023  Biso 1.000000     C
    C   1.0     0.915351     0.275562     0.476444  Biso 1.000000     C
    C   1.0     0.164788     0.050465     0.547803  Biso 1.000000     C
    C   1.0     0.139391     0.981759     0.207175  Biso 1.000000     C
    C   1.0     0.226180     0.319239     0.097138  Biso 1.000000     C
    C   1.0     0.239071     0.313473     0.018759  Biso 1.000000     C
    C   1.0     0.064982     0.367892     0.094941  Biso 1.000000     C
    C   1.0     0.095510     0.218301     0.081407  Biso 1.000000     C
    C   1.0     0.088527     0.231598     0.000000  Biso 1.000000     C
    C   1.0     0.139042     0.316113     0.986034  Biso 1.000000     C
    C   1.0     0.078959     0.389451     0.017939  Biso 1.000000     C
    C   1.0     0.122682     0.477110     0.000000  Biso 1.000000     C
    C   1.0     0.179124     0.637608     0.738882  Biso 1.000000     C
    C   1.0     0.327228     0.634384     0.123779  Biso 1.000000     C
    C   1.0     0.398800     0.644583     0.064019  Biso 1.000000     C
    C   1.0     0.205599     0.716677     0.713412  Biso 1.000000     C
    C   1.0     0.431046     0.787691     0.260162  Biso 1.000000     C
    C   1.0     0.528044     0.647165     0.954511  Biso 1.000000     C
    C   1.0     0.230488     0.759903     0.832615  Biso 1.000000     C
    C   1.0     0.371665     0.671158     0.188303  Biso 1.000000     C
    C   1.0     0.386687     0.760786     0.197629  Biso 1.000000     C
    C   1.0     0.400736     0.616689     0.239884  Biso 1.000000     C
    C   1.0     0.446468     0.648770     0.298439  Biso 1.000000     C
    C   1.0     0.538922     0.574291     0.007746  Biso 1.000000     C
    C   1.0     0.360005     0.823765     0.149037  Biso 1.000000     C
    C   1.0     0.443106     0.876328     0.272850  Biso 1.000000     C
    C   1.0     0.480411     0.498025     0.981855  Biso 1.000000     C
    C   1.0     0.373431     0.522545     0.985440  Biso 1.000000     C
    C   1.0     0.197718     0.731845     0.636824  Biso 1.000000     C
    C   1.0     0.377758     0.909266     0.161775  Biso 1.000000     C
    C   1.0     0.235582     0.780282     0.761156  Biso 1.000000     C
    C   1.0     0.496622     0.601738     0.076702  Biso 1.000000     C
    C   1.0     0.178913     0.621668     0.809220  Biso 1.000000     C
    C   1.0     0.289323     0.901486     0.860676  Biso 1.000000     C
    C   1.0     0.270881     0.861852     0.741607  Biso 1.000000     C
    C   1.0     0.416926     0.935929     0.225041  Biso 1.000000     C
    C   1.0     0.255991     0.823165     0.881126  Biso 1.000000     C
    C   1.0     0.299019     0.920740     0.790296  Biso 1.000000     C
    C   1.0     0.419355     0.662214     0.943297  Biso 1.000000     C
    C   1.0     0.584083     0.726249     0.976932  Biso 1.000000     C
    C   1.0     0.338534     0.949575     0.047550  Biso 1.000000     C
    C   1.0     0.362322     0.017691     0.707604  Biso 1.000000     C
    C   1.0     0.273726     0.680892     0.597245  Biso 1.000000     C
    C   1.0     0.260734     0.686661     0.518875  Biso 1.000000     C
    C   1.0     0.434946     0.632287     0.594980  Biso 1.000000     C
    C   1.0     0.404328     0.781869     0.581389  Biso 1.000000     C
    C   1.0     0.411224     0.768532     0.503000  Biso 1.000000     C
    C   1.0     0.360707     0.683997     0.486096  Biso 1.000000     C
    C   1.0     0.420862     0.610678     0.518000  Biso 1.000000     C
    C   1.0     0.377206     0.522974     0.503300  Biso 1.000000     C
    N   1.0     0.702867     0.818955     0.144663  Biso 1.000000     N
    N   1.0     0.962353     0.768112     0.691458  Biso 1.000000     N
    N   1.0     0.860430     0.882967     0.004560  Biso 1.000000     N
    N   1.0     0.872813     0.797040     0.383037  Biso 1.000000     N
    N   1.0     0.797513     0.181151     0.644448  Biso 1.000000     N
    N   1.0     0.537794     0.231568     0.191086  Biso 1.000000     N
    N   1.0     0.639883     0.117358     0.504405  Biso 1.000000     N
    N   1.0     0.627159     0.203278     0.882917  Biso 1.000000     N
    N   1.0     0.297170     0.319269     0.355311  Biso 1.000000     N
    N   1.0     0.037533     0.268219     0.808357  Biso 1.000000     N
    N   1.0     0.139860     0.383733     0.495421  Biso 1.000000     N
    N   1.0     0.127130     0.296716     0.117020  Biso 1.000000     N
    N   1.0     0.202482     0.680779     0.855411  Biso 1.000000     N
    N   1.0     0.462223     0.731464     0.308776  Biso 1.000000     N
    N   1.0     0.360166     0.616799     0.995591  Biso 1.000000     N
    N   1.0     0.372794     0.703455     0.617057  Biso 1.000000     N
    O   1.0     0.802657     0.952737     0.864270  Biso 1.000000     O
    O   1.0     0.607646     0.796674     0.388865  Biso 1.000000     O
    O   1.0     0.854482     0.525922     0.882659  Biso 1.000000     O
    O   1.0     0.837240     0.500711     0.223716  Biso 1.000000     O
    O   1.0     0.175126     0.774440     0.032885  Biso 1.000000     O
    O   1.0     0.041601     0.711782     0.994389  Biso 1.000000     O
    O   1.0     0.850252     0.026280     0.447839  Biso 1.000000     O
    O   1.0     0.870385     0.000000     0.558882  Biso 1.000000     O
    O   1.0     0.698350     0.047799     0.364153  Biso 1.000000     O
    O   1.0     0.892324     0.203315     0.888727  Biso 1.000000     O
    O   1.0     0.641636     0.474180     0.382951  Biso 1.000000     O
    O   1.0     0.662560     0.499230     0.723212  Biso 1.000000     O
    O   1.0     0.325011     0.225586     0.532716  Biso 1.000000     O
    O   1.0     0.458421     0.288474     0.494281  Biso 1.000000     O
    O   1.0     0.649955     0.974098     0.947613  Biso 1.000000     O
    O   1.0     0.629723    -0.000699     0.058681  Biso 1.000000     O
    O   1.0     0.198412     0.452707     0.635924  Biso 1.000000     O
    O   1.0     0.392294     0.296697     0.111102  Biso 1.000000     O
    O   1.0     0.145502     0.026062     0.617230  Biso 1.000000     O
    O   1.0     0.162754     0.000000     0.276716  Biso 1.000000     O
    O   1.0     0.824514     0.277069     0.467123  Biso 1.000000     O
    O   1.0     0.957757     0.213650     0.505432  Biso 1.000000     O
    O   1.0     0.149605     0.525866     0.052143  Biso 1.000000     O
    O   1.0     0.129592     0.500449     0.941111  Biso 1.000000     O
    O   1.0     0.301027     0.547759     0.135973  Biso 1.000000     O
    O   1.0     0.107631     0.703309     0.611179  Biso 1.000000     O
    O   1.0     0.358322     0.974065     0.116883  Biso 1.000000     O
    O   1.0     0.337398    -0.000902     0.776965  Biso 1.000000     O
    O   1.0     0.675039     0.725230     0.967683  Biso 1.000000     O
    O   1.0     0.541465     0.788107     0.005712  Biso 1.000000     O
    O   1.0     0.350282     0.474235     0.552290  Biso 1.000000     O
    O   1.0     0.370377     0.499580     0.441249  Biso 1.000000     O
   Cd   1.0     0.690892     0.860006     0.028509  Biso 1.000000    Cd
   Cd   1.0     0.809666     0.140763     0.528173  Biso 1.000000    Cd
   Cd   1.0     0.309215     0.360279     0.471429  Biso 1.000000    Cd
   Cd   1.0     0.190685     0.639844     0.971520  Biso 1.000000    Cd
