#======================================================================

# CRYSTAL DATA

#----------------------------------------------------------------------

data_VESTA_phase_1


_pd_phase_name                         MOF
_cell_length_a                         14.23300
_cell_length_b                         15.70000
_cell_length_c                         15.69600
_cell_angle_alpha                      87.16100
_cell_angle_beta                       76.97600
_cell_angle_gamma                      76.97900
_symmetry_space_group_name_H-M         "P 1"
_symmetry_Int_Tables_number            1

loop_
_symmetry_equiv_pos_as_xyz
   "x, y, z"

loop_
   _atom_site_label
   _atom_site_occupancy
   _atom_site_fract_x
   _atom_site_fract_y
   _atom_site_fract_z
   _atom_site_adp_type
   _atom_site_B_iso_or_equiv
   _atom_site_type_symbol
    H   1.0     0.284938     0.740189     0.156797  Biso 1.000000     H
    H   1.0     0.783682     0.739601     0.158214  Biso 1.000000     H
    H   1.0     0.392661     0.745953     0.005242  Biso 1.000000     H
    H   1.0     0.892627     0.745707     0.007225  Biso 1.000000     H
    H   1.0     0.315951     0.753584     0.876506  Biso 1.000000     H
    H   1.0     0.817300     0.753641     0.877657  Biso 1.000000     H
    H   1.0     0.038205     0.749904     0.054336  Biso 1.000000     H
    H   1.0     0.538423     0.749736     0.053580  Biso 1.000000     H
    H   1.0     0.231428     0.259868     0.842932  Biso 1.000000     H
    H   1.0     0.732538     0.258980     0.842722  Biso 1.000000     H
    H   1.0     0.266941     0.254147     0.994420  Biso 1.000000     H
    H   1.0     0.768189     0.253221     0.994171  Biso 1.000000     H
    H   1.0     0.130291     0.246322     0.123325  Biso 1.000000     H
    H   1.0     0.631374     0.246371     0.123153  Biso 1.000000     H
    H   1.0     0.439199     0.251364     0.945913  Biso 1.000000     H
    H   1.0     0.938653     0.250303     0.945841  Biso 1.000000     H
    H   1.0     0.137328     0.157265     0.260100  Biso 1.000000     H
    H   1.0     0.635871     0.155856     0.259845  Biso 1.000000     H
    H   1.0     0.104403     0.005898     0.254271  Biso 1.000000     H
    H   1.0     0.604694     0.003847     0.254143  Biso 1.000000     H
    H   1.0     0.244793     0.876943     0.246373  Biso 1.000000     H
    H   1.0     0.746111     0.875845     0.246407  Biso 1.000000     H
    H   1.0     0.434970     0.054084     0.249812  Biso 1.000000     H
    H   1.0     0.933907     0.055032     0.249955  Biso 1.000000     H
    H   1.0     0.346145     0.841841     0.740192  Biso 1.000000     H
    H   1.0     0.844554     0.842006     0.740696  Biso 1.000000     H
    H   1.0     0.234325     0.992782     0.745958  Biso 1.000000     H
    H   1.0     0.733074     0.993101     0.746109  Biso 1.000000     H
    H   1.0     0.305966     0.122373     0.753127  Biso 1.000000     H
    H   1.0     0.805004     0.122504     0.752965  Biso 1.000000     H
    H   1.0     0.085845     0.946376     0.747851  Biso 1.000000     H
    H   1.0     0.587077     0.946524     0.747736  Biso 1.000000     H
    H   1.0     0.390968     0.657165     0.241176  Biso 1.000000     H
    H   1.0     0.892729     0.657037     0.239670  Biso 1.000000     H
    H   1.0     0.355413     0.505738     0.246798  Biso 1.000000     H
    H   1.0     0.857073     0.505677     0.245137  Biso 1.000000     H
    H   1.0     0.492298     0.376831     0.253417  Biso 1.000000     H
    H   1.0     0.993577     0.376716     0.253134  Biso 1.000000     H
    H   1.0     0.185278     0.553947     0.249828  Biso 1.000000     H
    H   1.0     0.684501     0.554031     0.248174  Biso 1.000000     H
    H   1.0     0.340140     0.343281     0.760463  Biso 1.000000     H
    H   1.0     0.839321     0.342985     0.759870  Biso 1.000000     H
    H   1.0     0.232388     0.494774     0.754380  Biso 1.000000     H
    H   1.0     0.731413     0.494460     0.754176  Biso 1.000000     H
    H   1.0     0.309141     0.623464     0.746414  Biso 1.000000     H
    H   1.0     0.807904     0.623211     0.746537  Biso 1.000000     H
    H   1.0     0.085872     0.445709     0.749957  Biso 1.000000     H
    H   1.0     0.586876     0.445765     0.750320  Biso 1.000000     H
    H   1.0     0.278867     0.759857     0.658213  Biso 1.000000     H
    H   1.0     0.780558     0.759356     0.656646  Biso 1.000000     H
    H   1.0     0.390683     0.754255     0.507188  Biso 1.000000     H
    H   1.0     0.891043     0.753861     0.505053  Biso 1.000000     H
    H   1.0     0.319091     0.747137     0.377583  Biso 1.000000     H
    H   1.0     0.817915     0.746938     0.376307  Biso 1.000000     H
    H   1.0     0.038013     0.752113     0.553461  Biso 1.000000     H
    H   1.0     0.537973     0.752197     0.554100  Biso 1.000000     H
    H   1.0     0.487975     0.240298     0.343949  Biso 1.000000     H
    H   1.0     0.986226     0.240227     0.342559  Biso 1.000000     H
    H   1.0     0.019198     0.246037     0.493943  Biso 1.000000     H
    H   1.0     0.519139     0.246142     0.495990  Biso 1.000000     H
    H   1.0     0.377734     0.253810     0.624069  Biso 1.000000     H
    H   1.0     0.878899     0.253785     0.622993  Biso 1.000000     H
    H   1.0     0.190009     0.249910     0.444877  Biso 1.000000     H
    H   1.0     0.688642     0.250337     0.445885  Biso 1.000000     H
    C   1.0     0.255446     0.742917     0.098185  Biso 1.000000     C
    C   1.0     0.754824     0.742527     0.099243  Biso 1.000000     C
    C   1.0     0.314260     0.746668     0.014897  Biso 1.000000     C
    C   1.0     0.814292     0.746448     0.016292  Biso 1.000000     C
    C   1.0     0.271470     0.751688     0.942584  Biso 1.000000     C
    C   1.0     0.772275     0.751649     0.943495  Biso 1.000000     C
    C   1.0     0.170443     0.753637     0.955878  Biso 1.000000     C
    C   1.0     0.671326     0.753614     0.956055  Biso 1.000000     C
    C   1.0     0.116916     0.748752     0.041593  Biso 1.000000     C
    C   1.0     0.617096     0.748585     0.041487  Biso 1.000000     C
    C   1.0     0.118379     0.760102     0.881864  Biso 1.000000     C
    C   1.0     0.619881     0.760166     0.881667  Biso 1.000000     C
    C   1.0     0.174250     0.257109     0.901612  Biso 1.000000     C
    C   1.0     0.675298     0.256651     0.901449  Biso 1.000000     C
    C   1.0     0.193680     0.253332     0.984855  Biso 1.000000     C
    C   1.0     0.694804     0.252884     0.984645  Biso 1.000000     C
    C   1.0     0.117588     0.248269     0.057279  Biso 1.000000     C
    C   1.0     0.618616     0.248378     0.057125  Biso 1.000000     C
    C   1.0     0.024092     0.246355     0.044102  Biso 1.000000     C
    C   1.0     0.524920     0.247085     0.044038  Biso 1.000000     C
    C   1.0     0.010523     0.251324     0.958438  Biso 1.000000     C
    C   1.0     0.511250     0.251982     0.958422  Biso 1.000000     C
    C   1.0     0.439302     0.241186     0.118204  Biso 1.000000     C
    C   1.0     0.938481     0.239858     0.118121  Biso 1.000000     C
    C   1.0     0.195816     0.098536     0.257163  Biso 1.000000     C
    C   1.0     0.694859     0.097525     0.257090  Biso 1.000000     C
    C   1.0     0.178097     0.015383     0.253427  Biso 1.000000     C
    C   1.0     0.678108     0.014008     0.253363  Biso 1.000000     C
    C   1.0     0.256634     0.942944     0.248260  Biso 1.000000     C
    C   1.0     0.757246     0.942086     0.248279  Biso 1.000000     C
    C   1.0     0.351165     0.956000     0.246196  Biso 1.000000     C
    C   1.0     0.851399     0.956008     0.246257  Biso 1.000000     C
    C   1.0     0.362476     0.041566     0.251032  Biso 1.000000     C
    C   1.0     0.861705     0.041876     0.251139  Biso 1.000000     C
    C   1.0     0.439819     0.881835     0.239733  Biso 1.000000     C
    C   1.0     0.940906     0.882664     0.239806  Biso 1.000000     C
    C   1.0     0.373736     0.900795     0.742569  Biso 1.000000     C
    C   1.0     0.872330     0.900898     0.742863  Biso 1.000000     C
    C   1.0     0.312376     0.983770     0.746374  Biso 1.000000     C
    C   1.0     0.811132     0.983923     0.746522  Biso 1.000000     C
    C   1.0     0.351984     0.056538     0.751033  Biso 1.000000     C
    C   1.0     0.850885     0.056625     0.751022  Biso 1.000000     C
    C   1.0     0.452140     0.043995     0.752319  Biso 1.000000     C
    C   1.0     0.951028     0.043966     0.752355  Biso 1.000000     C
    C   1.0     0.007567     0.958525     0.747366  Biso 1.000000     C
    C   1.0     0.508812     0.958589     0.747241  Biso 1.000000     C
    C   1.0     0.500549     0.118342     0.758513  Biso 1.000000     C
    C   1.0     0.999475     0.118270     0.758496  Biso 1.000000     C
    C   1.0     0.448279     0.598471     0.243334  Biso 1.000000     C
    C   1.0     0.949823     0.598343     0.242508  Biso 1.000000     C
    C   1.0     0.428814     0.515284     0.247038  Biso 1.000000     C
    C   1.0     0.930320     0.515160     0.246123  Biso 1.000000     C
    C   1.0     0.505043     0.442845     0.251432  Biso 1.000000     C
    C   1.0     0.000000     0.442728     0.251300  Biso 1.000000     C
    C   1.0     0.099735     0.455840     0.253456  Biso 1.000000     C
    C   1.0     0.598757     0.455944     0.252634  Biso 1.000000     C
    C   1.0     0.113389     0.541431     0.248623  Biso 1.000000     C
    C   1.0     0.612411     0.541525     0.247704  Biso 1.000000     C
    C   1.0     0.185248     0.381768     0.260065  Biso 1.000000     C
    C   1.0     0.684365     0.381800     0.258606  Biso 1.000000     C
    C   1.0     0.369619     0.401907     0.757531  Biso 1.000000     C
    C   1.0     0.868721     0.401638     0.757112  Biso 1.000000     C
    C   1.0     0.310797     0.485142     0.753641  Biso 1.000000     C
    C   1.0     0.809813     0.484842     0.753402  Biso 1.000000     C
    C   1.0     0.353614     0.557419     0.748431  Biso 1.000000     C
    C   1.0     0.852485     0.557184     0.748357  Biso 1.000000     C
    C   1.0     0.454640     0.544163     0.746477  Biso 1.000000     C
    C   1.0     0.953518     0.544008     0.746323  Biso 1.000000     C
    C   1.0     0.007148     0.458375     0.751164  Biso 1.000000     C
    C   1.0     0.508160     0.458503     0.751488  Biso 1.000000     C
    C   1.0     0.005385     0.618106     0.739855  Biso 1.000000     C
    C   1.0     0.506723     0.618166     0.739896  Biso 1.000000     C
    C   1.0     0.251305     0.757480     0.599229  Biso 1.000000     C
    C   1.0     0.752269     0.757165     0.598023  Biso 1.000000     C
    C   1.0     0.312653     0.753768     0.516246  Biso 1.000000     C
    C   1.0     0.812917     0.753462     0.514713  Biso 1.000000     C
    C   1.0     0.273082     0.749115     0.443431  Biso 1.000000     C
    C   1.0     0.772480     0.748942     0.442396  Biso 1.000000     C
    C   1.0     0.172966     0.747709     0.455972  Biso 1.000000     C
    C   1.0     0.672249     0.747651     0.455689  Biso 1.000000     C
    C   1.0     0.116258     0.752694     0.541406  Biso 1.000000     C
    C   1.0     0.616286     0.752671     0.541392  Biso 1.000000     C
    C   1.0     0.124610     0.741521     0.381603  Biso 1.000000     C
    C   1.0     0.623260     0.741451     0.381705  Biso 1.000000     C
    C   1.0     0.429003     0.243023     0.402308  Biso 1.000000     C
    C   1.0     0.927776     0.243108     0.401329  Biso 1.000000     C
    C   1.0     0.445737     0.246846     0.485841  Biso 1.000000     C
    C   1.0     0.945530     0.246845     0.484490  Biso 1.000000     C
    C   1.0     0.366601     0.251890     0.557814  Biso 1.000000     C
    C   1.0     0.867018     0.251929     0.556986  Biso 1.000000     C
    C   1.0     0.272472     0.253797     0.543898  Biso 1.000000     C
    C   1.0     0.772480     0.253957     0.543966  Biso 1.000000     C
    C   1.0     0.262198     0.248829     0.458005  Biso 1.000000     C
    C   1.0     0.761144     0.249134     0.458375  Biso 1.000000     C
    C   1.0     0.182904     0.260200     0.617194  Biso 1.000000     C
    C   1.0     0.683849     0.260348     0.618165  Biso 1.000000     C
    N   1.0     0.158041     0.743089     0.111504  Biso 1.000000     N
    N   1.0     0.657473     0.742754     0.111831  Biso 1.000000     N
    N   1.0     0.083479     0.256934     0.888426  Biso 1.000000     N
    N   1.0     0.584372     0.256973     0.888367  Biso 1.000000     N
    N   1.0     0.286764     0.111611     0.256751  Biso 1.000000     N
    N   1.0     0.785427     0.111410     0.256849  Biso 1.000000     N
    N   1.0     0.471128     0.888202     0.742198  Biso 1.000000     N
    N   1.0     0.969749     0.888210     0.742428  Biso 1.000000     N
    N   1.0     0.040523     0.611475     0.242922  Biso 1.000000     N
    N   1.0     0.539237     0.611570     0.242869  Biso 1.000000     N
    N   1.0     0.467030     0.388606     0.757297  Biso 1.000000     N
    N   1.0     0.966131     0.388431     0.756852  Biso 1.000000     N
    N   1.0     0.153940     0.757757     0.611805  Biso 1.000000     N
    N   1.0     0.654801     0.757600     0.611341  Biso 1.000000     N
    N   1.0     0.338452     0.243157     0.388446  Biso 1.000000     N
    N   1.0     0.836830     0.243439     0.388294  Biso 1.000000     N
    O   1.0     0.168847     0.770418     0.803999  Biso 1.000000     O
    O   1.0     0.670694     0.770404     0.803923  Biso 1.000000     O
    O   1.0     0.029227     0.755172     0.896965  Biso 1.000000     O
    O   1.0     0.530693     0.755343     0.896429  Biso 1.000000     O
    O   1.0     0.456686     0.229613     0.195855  Biso 1.000000     O
    O   1.0     0.955179     0.229660     0.196042  Biso 1.000000     O
    O   1.0     0.354792     0.247673     0.103403  Biso 1.000000     O
    O   1.0     0.854501     0.244641     0.102846  Biso 1.000000     O
    O   1.0     0.427845     0.803999     0.229543  Biso 1.000000     O
    O   1.0     0.930015     0.804393     0.229653  Biso 1.000000     O
    O   1.0     0.021962     0.898902     0.244599  Biso 1.000000     O
    O   1.0     0.521580     0.896762     0.244563  Biso 1.000000     O
    O   1.0     0.444480     0.195935     0.770311  Biso 1.000000     O
    O   1.0     0.943383     0.195904     0.770212  Biso 1.000000     O
    O   1.0     0.091269     0.103521     0.752140  Biso 1.000000     O
    O   1.0     0.592412     0.103579     0.752111  Biso 1.000000     O
    O   1.0     0.168404     0.303922     0.270321  Biso 1.000000     O
    O   1.0     0.666935     0.304179     0.270287  Biso 1.000000     O
    O   1.0     0.269274     0.396940     0.255312  Biso 1.000000     O
    O   1.0     0.768865     0.396597     0.252145  Biso 1.000000     O
    O   1.0     0.456321     0.695999     0.729520  Biso 1.000000     O
    O   1.0     0.954816     0.695915     0.729575  Biso 1.000000     O
    O   1.0     0.094540     0.603150     0.744765  Biso 1.000000     O
    O   1.0     0.595888     0.603069     0.744816  Biso 1.000000     O
    O   1.0     0.180675     0.729740     0.303967  Biso 1.000000     O
    O   1.0     0.679052     0.729641     0.303975  Biso 1.000000     O
    O   1.0     0.032754     0.747924     0.396331  Biso 1.000000     O
    O   1.0     0.531400     0.747830     0.396754  Biso 1.000000     O
    O   1.0     0.193678     0.270348     0.695517  Biso 1.000000     O
    O   1.0     0.695811     0.270508     0.696014  Biso 1.000000     O
    O   1.0     0.101894     0.255381     0.600810  Biso 1.000000     O
    O   1.0     0.602094     0.255474     0.603232  Biso 1.000000     O
   Zn   1.0     0.061754     0.763171     0.736831  Biso 1.000000    Zn
   Zn   1.0     0.563515     0.763144     0.736745  Biso 1.000000    Zn
   Zn   1.0     0.312694     0.236946     0.263119  Biso 1.000000    Zn
   Zn   1.0     0.810884     0.236877     0.263005  Biso 1.000000    Zn
   Zn   1.0     0.069747     0.736908     0.236879  Biso 1.000000    Zn
   Zn   1.0     0.568189     0.736892     0.236898  Biso 1.000000    Zn
   Zn   1.0     0.054014     0.263122     0.763075  Biso 1.000000    Zn
   Zn   1.0     0.555370     0.263111     0.763062  Biso 1.000000    Zn
