#======================================================================

# CRYSTAL DATA

#----------------------------------------------------------------------

data_VESTA_phase_1


_pd_phase_name                         MOF
_cell_length_a                         15.55400
_cell_length_b                         14.51400
_cell_length_c                         15.02500
_cell_angle_alpha                      80.01000
_cell_angle_beta                       74.31800
_cell_angle_gamma                      77.46700
_symmetry_space_group_name_H-M         "P 1"
_symmetry_Int_Tables_number            1

loop_
_symmetry_equiv_pos_as_xyz
   "x, y, z"

loop_
   _atom_site_label
   _atom_site_occupancy
   _atom_site_fract_x
   _atom_site_fract_y
   _atom_site_fract_z
   _atom_site_adp_type
   _atom_site_B_iso_or_equiv
   _atom_site_type_symbol
    H   1.0     0.764087     0.760744     0.485329  Biso 1.000000     H
    H   1.0     0.209050     0.950182     0.502369  Biso 1.000000     H
    H   1.0     0.978697     0.177455     0.505834  Biso 1.000000     H
    H   1.0     0.467163     0.754274     0.764686  Biso 1.000000     H
    H   1.0     0.513042     0.175430     0.974011  Biso 1.000000     H
    H   1.0     0.530693     0.954336     0.202941  Biso 1.000000     H
    H   1.0     0.773639     0.483382     0.768541  Biso 1.000000     H
    H   1.0     0.969384     0.500373     0.182014  Biso 1.000000     H
    H   1.0     0.209652     0.499051     0.956567  Biso 1.000000     H
    H   1.0     0.235495     0.236395     0.517029  Biso 1.000000     H
    H   1.0     0.790219     0.047604     0.497843  Biso 1.000000     H
    H   1.0     0.020457     0.820571     0.496783  Biso 1.000000     H
    H   1.0     0.532170     0.243022     0.235810  Biso 1.000000     H
    H   1.0     0.486659     0.821038     0.026687  Biso 1.000000     H
    H   1.0     0.469055     0.042668     0.798212  Biso 1.000000     H
    H   1.0     0.225156     0.514498     0.235302  Biso 1.000000     H
    H   1.0     0.029349     0.497779     0.821789  Biso 1.000000     H
    H   1.0     0.789104     0.498984     0.047254  Biso 1.000000     H
    C   1.0     0.232793     0.089755     0.510069  Biso 1.000000     C
    C   1.0     0.102848     0.217518     0.511829  Biso 1.000000     C
    C   1.0     0.194323     0.185892     0.513800  Biso 1.000000     C
    C   1.0     0.179627     0.025123     0.505607  Biso 1.000000     C
    C   1.0     0.330925     0.056162     0.508829  Biso 1.000000     C
    C   1.0     0.049568     0.153138     0.507610  Biso 1.000000     C
    C   1.0     0.088113     0.056388     0.504886  Biso 1.000000     C
    C   1.0     0.936060     0.676293     0.491623  Biso 1.000000     C
    C   1.0     0.524533     0.219261     0.100075  Biso 1.000000     C
    C   1.0     0.532113     0.095406     0.229776  Biso 1.000000     C
    C   1.0     0.530402     0.190759     0.192789  Biso 1.000000     C
    C   1.0     0.519397     0.153113     0.045222  Biso 1.000000     C
    C   1.0     0.519348     0.321989     0.061658  Biso 1.000000     C
    C   1.0     0.529561     0.028652     0.174422  Biso 1.000000     C
    C   1.0     0.521443     0.057444     0.083282  Biso 1.000000     C
    C   1.0     0.470287     0.934416     0.671086  Biso 1.000000     C
    C   1.0     0.092841     0.507312     0.219604  Biso 1.000000     C
    C   1.0     0.228272     0.507209     0.092350  Biso 1.000000     C
    C   1.0     0.185828     0.510670     0.186668  Biso 1.000000     C
    C   1.0     0.041529     0.502941     0.157218  Biso 1.000000     C
    C   1.0     0.052378     0.506614     0.322959  Biso 1.000000     C
    C   1.0     0.177352     0.502201     0.030154  Biso 1.000000     C
    C   1.0     0.084094     0.501270     0.061570  Biso 1.000000     C
    C   1.0     0.670715     0.491169     0.945291  Biso 1.000000     C
    C   1.0     0.766666     0.907673     0.491059  Biso 1.000000     C
    C   1.0     0.896535     0.780045     0.490736  Biso 1.000000     C
    C   1.0     0.805164     0.811462     0.488251  Biso 1.000000     C
    C   1.0     0.819683     0.972602     0.495217  Biso 1.000000     C
    C   1.0     0.668593     0.941021     0.491884  Biso 1.000000     C
    C   1.0     0.949670     0.844700     0.494599  Biso 1.000000     C
    C   1.0     0.911095     0.941529     0.496445  Biso 1.000000     C
    C   1.0     0.063302     0.321205     0.511909  Biso 1.000000     C
    C   1.0     0.474995     0.777583     0.900504  Biso 1.000000     C
    C   1.0     0.467460     0.901781     0.771021  Biso 1.000000     C
    C   1.0     0.469073     0.806364     0.807828  Biso 1.000000     C
    C   1.0     0.480293     0.843540     0.955499  Biso 1.000000     C
    C   1.0     0.479912     0.674831     0.938898  Biso 1.000000     C
    C   1.0     0.470145     0.968307     0.826541  Biso 1.000000     C
    C   1.0     0.478301     0.939257     0.917644  Biso 1.000000     C
    C   1.0     0.529171     0.063084     0.329761  Biso 1.000000     C
    C   1.0     0.905915     0.490629     0.784234  Biso 1.000000     C
    C   1.0     0.770472     0.490793     0.911468  Biso 1.000000     C
    C   1.0     0.812937     0.487310     0.817166  Biso 1.000000     C
    C   1.0     0.957207     0.495184     0.846581  Biso 1.000000     C
    C   1.0     0.946308     0.491138     0.680904  Biso 1.000000     C
    C   1.0     0.821381     0.495856     0.973658  Biso 1.000000     C
    C   1.0     0.914630     0.496883     0.942223  Biso 1.000000     C
    C   1.0     0.328046     0.506652     0.058409  Biso 1.000000     C
    N   1.0     0.041279    -0.015690     0.500523  Biso 1.000000     N
    N   1.0     0.514361    -0.016436     0.037106  Biso 1.000000     N
    N   1.0     0.042137     0.497344    -0.010769  Biso 1.000000     N
    N   1.0     0.957845     0.000000     0.500620  Biso 1.000000     N
    N   1.0     0.485421     0.000000     0.963931  Biso 1.000000     N
    N   1.0     0.956579     0.500843     0.000000  Biso 1.000000     N
    O   1.0     0.374283     0.117157     0.519629  Biso 1.000000     O
    O   1.0     0.884316     0.621570     0.485051  Biso 1.000000     O
    O   1.0     0.017778     0.650546     0.499940  Biso 1.000000     O
    O   1.0     0.363583     0.969351     0.496001  Biso 1.000000     O
    O   1.0     0.518383     0.379346     0.117734  Biso 1.000000     O
    O   1.0     0.468323     0.873515     0.620123  Biso 1.000000     O
    O   1.0     0.477846     0.021600     0.644275  Biso 1.000000     O
    O   1.0     0.514899     0.344304     0.976730  Biso 1.000000     O
    O   1.0     0.104524     0.519514     0.370945  Biso 1.000000     O
    O   1.0     0.630095     0.475657     0.887361  Biso 1.000000     O
    O   1.0     0.634016     0.507904     0.029300  Biso 1.000000     O
    O   1.0     0.971041     0.491968     0.355505  Biso 1.000000     O
    O   1.0     0.625272     0.879825     0.481401  Biso 1.000000     O
    O   1.0     0.114969     0.375694     0.519119  Biso 1.000000     O
    O   1.0     0.981607     0.347158     0.503529  Biso 1.000000     O
    O   1.0     0.635938     0.027963     0.504123  Biso 1.000000     O
    O   1.0     0.480060     0.617510     0.883108  Biso 1.000000     O
    O   1.0     0.530392     0.124300     0.380748  Biso 1.000000     O
    O   1.0     0.522262     0.975743     0.356548  Biso 1.000000     O
    O   1.0     0.484934     0.652483     0.023652  Biso 1.000000     O
    O   1.0     0.894395     0.477325     0.633103  Biso 1.000000     O
    O   1.0     0.368653     0.523161     0.115896  Biso 1.000000     O
    O   1.0     0.364756     0.488784     0.974739  Biso 1.000000     O
    O   1.0     0.027451     0.506357     0.648256  Biso 1.000000     O
   Cu   1.0     0.494201     0.919117     0.486528  Biso 1.000000    Cu
   Cu   1.0     0.497289     0.479919     0.925282  Biso 1.000000    Cu
   Cu   1.0     0.927540     0.483292     0.494516  Biso 1.000000    Cu
   Cu   1.0     0.505303     0.078195     0.514242  Biso 1.000000    Cu
   Cu   1.0     0.501439     0.517331     0.077135  Biso 1.000000    Cu
   Cu   1.0     0.071499     0.514130     0.509435  Biso 1.000000    Cu
