#======================================================================

# CRYSTAL DATA

#----------------------------------------------------------------------

data_VESTA_phase_1


_pd_phase_name                         MOF
_cell_length_a                         13.44400
_cell_length_b                         13.79100
_cell_length_c                         27.65100
_cell_angle_alpha                      90.01400
_cell_angle_beta                       89.91400
_cell_angle_gamma                      89.06400
_symmetry_space_group_name_H-M         "P 1"
_symmetry_Int_Tables_number            1

loop_
_symmetry_equiv_pos_as_xyz
   "x, y, z"

loop_
   _atom_site_label
   _atom_site_occupancy
   _atom_site_fract_x
   _atom_site_fract_y
   _atom_site_fract_z
   _atom_site_adp_type
   _atom_site_B_iso_or_equiv
   _atom_site_type_symbol
    C   1.0     0.931566     0.390149     0.166119  Biso 1.000000     C
    C   1.0     0.770280     0.082537     0.163520  Biso 1.000000     C
    C   1.0     0.086593     0.937774     0.085368  Biso 1.000000     C
    C   1.0     0.233791     0.242455     0.085367  Biso 1.000000     C
    C   1.0     0.032857     0.680281     0.110030  Biso 1.000000     C
    C   1.0     0.904244     0.203223     0.010006  Biso 1.000000     C
    C   1.0     0.087728     0.088894     0.237511  Biso 1.000000     C
    C   1.0     0.432058     0.101632     0.833736  Biso 1.000000     C
    C   1.0     0.255873     0.411204     0.836257  Biso 1.000000     C
    C   1.0     0.546380     0.567838     0.915215  Biso 1.000000     C
    C   1.0     0.723385     0.263849     0.919064  Biso 1.000000     C
    C   1.0     0.527602     0.801363     0.878442  Biso 1.000000     C
    C   1.0     0.398525     0.299735     0.992320  Biso 1.000000     C
    C   1.0     0.577467     0.408539     0.764815  Biso 1.000000     C
    C   1.0     0.558771     0.603718     0.668649  Biso 1.000000     C
    C   1.0     0.737165     0.914119     0.663771  Biso 1.000000     C
    C   1.0     0.443642     0.069641     0.585120  Biso 1.000000     C
    C   1.0     0.273188     0.764524     0.581951  Biso 1.000000     C
    C   1.0     0.462523     0.306844     0.620550  Biso 1.000000     C
    C   1.0     0.603098     0.792932     0.510837  Biso 1.000000     C
    C   1.0     0.413186     0.913821     0.735739  Biso 1.000000     C
    C   1.0     0.065826     0.895539     0.333313  Biso 1.000000     C
    C   1.0     0.242035     0.585181     0.336290  Biso 1.000000     C
    C   1.0     0.943264     0.431293     0.412846  Biso 1.000000     C
    C   1.0     0.776119     0.735440     0.417086  Biso 1.000000     C
    C   1.0     0.965390     0.193864     0.380395  Biso 1.000000     C
    C   1.0     0.104476     0.700503     0.489881  Biso 1.000000     C
    C   1.0     0.925749     0.591534     0.260227  Biso 1.000000     C
    C   1.0     0.053673     0.602201     0.831765  Biso 1.000000     C
    C   1.0     0.232325     0.911851     0.835553  Biso 1.000000     C
    C   1.0     0.938651     0.067879     0.913879  Biso 1.000000     C
    C   1.0     0.761516     0.765419     0.914584  Biso 1.000000     C
    C   1.0     0.961449     0.306429     0.881100  Biso 1.000000     C
    C   1.0     0.078809     0.787012     0.990288  Biso 1.000000     C
    C   1.0     0.915785     0.912979     0.762361  Biso 1.000000     C
    C   1.0     0.573407     0.898989     0.166904  Biso 1.000000     C
    C   1.0     0.741100     0.579796     0.162137  Biso 1.000000     C
    C   1.0     0.447671     0.437678     0.086200  Biso 1.000000     C
    C   1.0     0.278823     0.753773     0.088646  Biso 1.000000     C
    C   1.0     0.472727     0.199669     0.121316  Biso 1.000000     C
    C   1.0     0.601637     0.702024     0.008865  Biso 1.000000     C
    C   1.0     0.424876     0.591833     0.237722  Biso 1.000000     C
    C   1.0     0.440571     0.395510     0.333253  Biso 1.000000     C
    C   1.0     0.264047     0.084807     0.337531  Biso 1.000000     C
    C   1.0     0.558496     0.930322     0.416307  Biso 1.000000     C
    C   1.0     0.727166     0.236396     0.417512  Biso 1.000000     C
    C   1.0     0.536383     0.691940     0.382456  Biso 1.000000     C
    C   1.0     0.397920     0.205784     0.490977  Biso 1.000000     C
    C   1.0     0.587012     0.089543     0.264272  Biso 1.000000     C
    C   1.0     0.935574     0.105062     0.665923  Biso 1.000000     C
    C   1.0     0.757430     0.414372     0.664138  Biso 1.000000     C
    C   1.0     0.054963     0.570393     0.584881  Biso 1.000000     C
    C   1.0     0.224836     0.266021     0.582629  Biso 1.000000     C
    C   1.0     0.035253     0.806637     0.618727  Biso 1.000000     C
    C   1.0     0.896365     0.299989     0.508751  Biso 1.000000     C
    C   1.0     0.076852     0.410864     0.736079  Biso 1.000000     C
    N   1.0     0.957904     0.312926     0.153532  Biso 1.000000     N
    N   1.0     0.849123     0.103169     0.149326  Biso 1.000000     N
    N   1.0     0.053807     0.013807     0.096403  Biso 1.000000     N
    N   1.0     0.153734     0.220297     0.097197  Biso 1.000000     N
    N   1.0     0.985586     0.631743     0.135654  Biso 1.000000     N
    N   1.0     0.933140     0.197454     0.049820  Biso 1.000000     N
    N   1.0     0.068916     0.118401     0.198897  Biso 1.000000     N
    N   1.0     0.455720     0.177825     0.847760  Biso 1.000000     N
    N   1.0     0.334615     0.388387     0.850563  Biso 1.000000     N
    N   1.0     0.522363     0.489066     0.905471  Biso 1.000000     N
    N   1.0     0.642594     0.284718     0.906788  Biso 1.000000     N
    N   1.0     0.479762     0.855180     0.855124  Biso 1.000000     N
    N   1.0     0.421011     0.301129     0.951418  Biso 1.000000     N
    N   1.0     0.557436     0.379792     0.803338  Biso 1.000000     N
    N   1.0     0.537760     0.681586     0.654976  Biso 1.000000     N
    N   1.0     0.658642     0.890979     0.650294  Biso 1.000000     N
    N   1.0     0.468673     0.990296     0.594716  Biso 1.000000     N
    N   1.0     0.352724     0.787210     0.594261  Biso 1.000000     N
    N   1.0     0.509933     0.358812     0.644279  Biso 1.000000     N
    N   1.0     0.577295     0.796961     0.551246  Biso 1.000000     N
    N   1.0     0.435112     0.885538     0.697239  Biso 1.000000     N
    N   1.0     0.043736     0.818307     0.346532  Biso 1.000000     N
    N   1.0     0.162313     0.606485     0.349983  Biso 1.000000     N
    N   1.0     0.968884     0.509131     0.402255  Biso 1.000000     N
    N   1.0     0.856495     0.714482     0.404117  Biso 1.000000     N
    N   1.0     0.014922     0.140220     0.357698  Biso 1.000000     N
    N   1.0     0.079095     0.696193     0.449469  Biso 1.000000     N
    N   1.0     0.943634     0.619309     0.299168  Biso 1.000000     N
    N   1.0     0.031354     0.680193     0.844856  Biso 1.000000     N
    N   1.0     0.154638     0.887386     0.849644  Biso 1.000000     N
    N   1.0     0.960384     0.988172     0.903211  Biso 1.000000     N
    N   1.0     0.840517     0.787837     0.901283  Biso 1.000000     N
    N   1.0     0.008142     0.359455     0.857541  Biso 1.000000     N
    N   1.0     0.057340     0.794857     0.949464  Biso 1.000000     N
    N   1.0     0.935427     0.883680     0.800924  Biso 1.000000     N
    N   1.0     0.551220     0.821575     0.153985  Biso 1.000000     N
    N   1.0     0.662632     0.608195     0.149914  Biso 1.000000     N
    N   1.0     0.471700     0.516447     0.095945  Biso 1.000000     N
    N   1.0     0.359470     0.728335     0.099052  Biso 1.000000     N
    N   1.0     0.521423     0.146163     0.144404  Biso 1.000000     N
    N   1.0     0.579922     0.699400     0.049827  Biso 1.000000     N
    N   1.0     0.444667     0.621420     0.199336  Biso 1.000000     N
    N   1.0     0.460709     0.317392     0.346850  Biso 1.000000     N
    N   1.0     0.342510     0.107266     0.351374  Biso 1.000000     N
    N   1.0     0.533955     0.009575     0.406268  Biso 1.000000     N
    N   1.0     0.647160     0.213590     0.406036  Biso 1.000000     N
    N   1.0     0.488658     0.639722     0.359018  Biso 1.000000     N
    N   1.0     0.423448     0.201361     0.450533  Biso 1.000000     N
    N   1.0     0.565127     0.116038     0.303085  Biso 1.000000     N
    N   1.0     0.957466     0.182100     0.652323  Biso 1.000000     N
    N   1.0     0.836361     0.393204     0.649344  Biso 1.000000     N
    N   1.0     0.028188     0.492709     0.595057  Biso 1.000000     N
    N   1.0     0.143769     0.287459     0.594354  Biso 1.000000     N
    N   1.0     0.986062     0.859929     0.641792  Biso 1.000000     N
    N   1.0     0.921082     0.303853     0.549262  Biso 1.000000     N
    N   1.0     0.057390     0.383142     0.697322  Biso 1.000000     N
   Cd   1.0     0.000000     0.162172     0.125691  Biso 1.000000    Cd
   Cd   1.0     0.893784     0.540899     0.186762  Biso 1.000000    Cd
   Cd   1.0     0.122475     0.782791     0.067399  Biso 1.000000    Cd
   Cd   1.0     0.488032     0.331730     0.874906  Biso 1.000000    Cd
   Cd   1.0     0.378929     0.959420     0.810572  Biso 1.000000    Cd
   Cd   1.0     0.612617     0.709806     0.929556  Biso 1.000000    Cd
   Cd   1.0     0.506322     0.834952     0.626138  Biso 1.000000    Cd
   Cd   1.0     0.608101     0.457710     0.690602  Biso 1.000000    Cd
   Cd   1.0     0.378714     0.214823     0.570254  Biso 1.000000    Cd
   Cd   1.0     0.009199     0.664448     0.372692  Biso 1.000000    Cd
   Cd   1.0     0.116442     0.039716     0.312062  Biso 1.000000    Cd
   Cd   1.0     0.878632     0.288973     0.429533  Biso 1.000000    Cd
   Cd   1.0     0.000425     0.833506     0.873458  Biso 1.000000    Cd
   Cd   1.0     0.107290     0.456577     0.810928  Biso 1.000000    Cd
   Cd   1.0     0.877399     0.213890     0.931348  Biso 1.000000    Cd
   Cd   1.0     0.510532     0.670547     0.126808  Biso 1.000000    Cd
   Cd   1.0     0.621166     0.043897     0.189807  Biso 1.000000    Cd
   Cd   1.0     0.385470     0.293390     0.071956  Biso 1.000000    Cd
   Cd   1.0     0.494241     0.163962     0.374980  Biso 1.000000    Cd
   Cd   1.0     0.392557     0.541862     0.311507  Biso 1.000000    Cd
   Cd   1.0     0.622397     0.784798     0.431513  Biso 1.000000    Cd
   Cd   1.0     0.989402     0.336600     0.625254  Biso 1.000000    Cd
   Cd   1.0     0.885389     0.960963     0.687506  Biso 1.000000    Cd
   Cd   1.0     0.121807     0.712258     0.569109  Biso 1.000000    Cd
