#======================================================================

# CRYSTAL DATA

#----------------------------------------------------------------------

data_VESTA_phase_1


_pd_phase_name                         MOF
_cell_length_a                         21.33800
_cell_length_b                         13.65900
_cell_length_c                         21.38200
_cell_angle_alpha                      89.97500
_cell_angle_beta                       90.03500
_cell_angle_gamma                      112.83900
_symmetry_space_group_name_H-M         "P 1"
_symmetry_Int_Tables_number            1

loop_
_symmetry_equiv_pos_as_xyz
   "x, y, z"

loop_
   _atom_site_label
   _atom_site_occupancy
   _atom_site_fract_x
   _atom_site_fract_y
   _atom_site_fract_z
   _atom_site_adp_type
   _atom_site_B_iso_or_equiv
   _atom_site_type_symbol
    H   1.0     0.099115     0.461220     0.643544  Biso 1.000000     H
    H   1.0     0.599575     0.461577     0.643585  Biso 1.000000     H
    H   1.0     0.185759     0.380766     0.808340  Biso 1.000000     H
    H   1.0     0.686195     0.380713     0.808265  Biso 1.000000     H
    H   1.0     0.287590     0.399085     0.747976  Biso 1.000000     H
    H   1.0     0.787965     0.398972     0.747824  Biso 1.000000     H
    H   1.0     0.288850     0.384681     0.481151  Biso 1.000000     H
    H   1.0     0.789131     0.385324     0.481025  Biso 1.000000     H
    H   1.0     0.205154     0.390648     0.302546  Biso 1.000000     H
    H   1.0     0.705121     0.390933     0.302524  Biso 1.000000     H
    H   1.0     0.271784     0.251726     0.299335  Biso 1.000000     H
    H   1.0     0.772029     0.252398     0.299194  Biso 1.000000     H
    H   1.0     0.375304     0.292934     0.444436  Biso 1.000000     H
    H   1.0     0.875859     0.294042     0.444074  Biso 1.000000     H
    H   1.0     0.297746     0.179242     0.452089  Biso 1.000000     H
    H   1.0     0.798392     0.180302     0.452041  Biso 1.000000     H
    H   1.0     0.255809     0.051875     0.360660  Biso 1.000000     H
    H   1.0     0.756079     0.052811     0.360545  Biso 1.000000     H
    H   1.0     0.292124     0.961375     0.276719  Biso 1.000000     H
    H   1.0     0.792228     0.961957     0.276693  Biso 1.000000     H
    H   1.0     0.491878     0.211908     0.278934  Biso 1.000000     H
    H   1.0     0.992161     0.212025     0.278793  Biso 1.000000     H
    H   1.0     0.455163     0.303667     0.362307  Biso 1.000000     H
    H   1.0     0.955611     0.304153     0.362068  Biso 1.000000     H
    H   1.0     0.453710     0.647948     0.048427  Biso 1.000000     H
    H   1.0     0.953426     0.647442     0.048517  Biso 1.000000     H
    H   1.0     0.154200     0.791995     0.118625  Biso 1.000000     H
    H   1.0     0.654305     0.792708     0.118881  Biso 1.000000     H
    H   1.0     0.095024     0.941860     0.116434  Biso 1.000000     H
    H   1.0     0.595071     0.942456     0.116432  Biso 1.000000     H
    H   1.0     0.478757     0.909615     0.026598  Biso 1.000000     H
    H   1.0     0.978593     0.909044     0.026669  Biso 1.000000     H
    H   1.0     0.413600     0.789222     0.051989  Biso 1.000000     H
    H   1.0     0.913409     0.788768     0.052178  Biso 1.000000     H
    H   1.0     0.384235     0.770907     0.170911  Biso 1.000000     H
    H   1.0     0.884014     0.770814     0.171055  Biso 1.000000     H
    H   1.0     0.358077     0.865687     0.258226  Biso 1.000000     H
    H   1.0     0.857973     0.865912     0.258265  Biso 1.000000     H
    H   1.0     0.477561     0.165674     0.171339  Biso 1.000000     H
    H   1.0     0.977812     0.165593     0.171237  Biso 1.000000     H
    H   1.0     0.006422     0.069978     0.085441  Biso 1.000000     H
    H   1.0     0.506280     0.070387     0.085443  Biso 1.000000     H
    H   1.0     0.399985     0.538247     0.144404  Biso 1.000000     H
    H   1.0     0.899540     0.537857     0.144392  Biso 1.000000     H
    H   1.0     0.313664     0.620668     0.308599  Biso 1.000000     H
    H   1.0     0.814151     0.621435     0.308800  Biso 1.000000     H
    H   1.0     0.212026     0.602736     0.247959  Biso 1.000000     H
    H   1.0     0.712194     0.603159     0.248541  Biso 1.000000     H
    H   1.0     0.211450     0.615809     0.981588  Biso 1.000000     H
    H   1.0     0.711251     0.615924     0.981710  Biso 1.000000     H
    H   1.0     0.295417     0.609499     0.803252  Biso 1.000000     H
    H   1.0     0.795361     0.609487     0.803477  Biso 1.000000     H
    H   1.0     0.228801     0.748479     0.799621  Biso 1.000000     H
    H   1.0     0.729057     0.748913     0.799778  Biso 1.000000     H
    H   1.0     0.125250     0.707803     0.944612  Biso 1.000000     H
    H   1.0     0.625455     0.708543     0.944751  Biso 1.000000     H
    H   1.0     0.202869     0.821414     0.952131  Biso 1.000000     H
    H   1.0     0.703146     0.822154     0.952070  Biso 1.000000     H
    H   1.0     0.244657     0.948670     0.860662  Biso 1.000000     H
    H   1.0     0.744754     0.949215     0.860623  Biso 1.000000     H
    H   1.0     0.208225     0.039110     0.776682  Biso 1.000000     H
    H   1.0     0.708232     0.039473     0.776607  Biso 1.000000     H
    H   1.0     0.008543     0.788385     0.778889  Biso 1.000000     H
    H   1.0     0.508654     0.788485     0.778839  Biso 1.000000     H
    H   1.0     0.045377     0.696731     0.862345  Biso 1.000000     H
    H   1.0     0.545588     0.697012     0.862345  Biso 1.000000     H
    H   1.0     0.045611     0.351682     0.547873  Biso 1.000000     H
    H   1.0     0.545632     0.352166     0.548084  Biso 1.000000     H
    H   1.0     0.345389     0.207008     0.619168  Biso 1.000000     H
    H   1.0     0.845406     0.206940     0.619144  Biso 1.000000     H
    H   1.0     0.404870     0.057595     0.616572  Biso 1.000000     H
    H   1.0     0.904786     0.057398     0.616669  Biso 1.000000     H
    H   1.0     0.020850     0.090204     0.526521  Biso 1.000000     H
    H   1.0     0.520924     0.090682     0.526506  Biso 1.000000     H
    H   1.0     0.085989     0.210763     0.551755  Biso 1.000000     H
    H   1.0     0.586060     0.211184     0.551811  Biso 1.000000     H
    H   1.0     0.115696     0.229285     0.670684  Biso 1.000000     H
    H   1.0     0.615677     0.229536     0.670743  Biso 1.000000     H
    H   1.0     0.142177     0.134713     0.758000  Biso 1.000000     H
    H   1.0     0.642126     0.134884     0.758035  Biso 1.000000     H
    H   1.0     0.022673     0.834532     0.671350  Biso 1.000000     H
    H   1.0     0.522747     0.834784     0.671235  Biso 1.000000     H
    H   1.0     0.493725     0.929937     0.585373  Biso 1.000000     H
    H   1.0     0.993608     0.929602     0.585464  Biso 1.000000     H
    H   1.0     0.130547     0.461316     0.855581  Biso 1.000000     H
    H   1.0     0.630971     0.461347     0.855618  Biso 1.000000     H
    H   1.0     0.003962     0.379554     0.690800  Biso 1.000000     H
    H   1.0     0.504430     0.379740     0.690811  Biso 1.000000     H
    H   1.0     0.411297     0.396851     0.751170  Biso 1.000000     H
    H   1.0     0.910780     0.396457     0.751190  Biso 1.000000     H
    H   1.0     0.403181     0.381751     0.018561  Biso 1.000000     H
    H   1.0     0.902817     0.381542     0.018528  Biso 1.000000     H
    H   1.0     0.489570     0.389779     0.197476  Biso 1.000000     H
    H   1.0     0.989248     0.389286     0.197407  Biso 1.000000     H
    H   1.0     0.353736     0.251419     0.200971  Biso 1.000000     H
    H   1.0     0.853495     0.250711     0.200833  Biso 1.000000     H
    H   1.0     0.270917     0.291180     0.055467  Biso 1.000000     H
    H   1.0     0.770618     0.290717     0.055406  Biso 1.000000     H
    H   1.0     0.291861     0.177321     0.048222  Biso 1.000000     H
    H   1.0     0.791533     0.176830     0.048159  Biso 1.000000     H
    H   1.0     0.269292     0.049403     0.139053  Biso 1.000000     H
    H   1.0     0.769041     0.049018     0.139054  Biso 1.000000     H
    H   1.0     0.187720     0.959384     0.222913  Biso 1.000000     H
    H   1.0     0.687582     0.959161     0.223034  Biso 1.000000     H
    H   1.0     0.114920     0.212744     0.221679  Biso 1.000000     H
    H   1.0     0.614779     0.212513     0.221746  Biso 1.000000     H
    H   1.0     0.197279     0.303710     0.138221  Biso 1.000000     H
    H   1.0     0.697045     0.303327     0.138169  Biso 1.000000     H
    H   1.0     0.369761     0.649506     0.452268  Biso 1.000000     H
    H   1.0     0.869664     0.649737     0.452484  Biso 1.000000     H
    H   1.0     0.242778     0.796309     0.380511  Biso 1.000000     H
    H   1.0     0.742906     0.796711     0.380442  Biso 1.000000     H
    H   1.0     0.376863     0.944465     0.383050  Biso 1.000000     H
    H   1.0     0.877072     0.944566     0.382755  Biso 1.000000     H
    H   1.0     0.476000     0.910055     0.473668  Biso 1.000000     H
    H   1.0     0.976157     0.910022     0.473557  Biso 1.000000     H
    H   1.0     0.480604     0.789208     0.448172  Biso 1.000000     H
    H   1.0     0.980659     0.789154     0.447966  Biso 1.000000     H
    H   1.0     0.000148     0.771135     0.328617  Biso 1.000000     H
    H   1.0     0.500014     0.771031     0.328789  Biso 1.000000     H
    H   1.0     0.073768     0.865475     0.241397  Biso 1.000000     H
    H   1.0     0.573632     0.865304     0.241548  Biso 1.000000     H
    H   1.0     0.106462     0.165709     0.329433  Biso 1.000000     H
    H   1.0     0.606412     0.165610     0.329534  Biso 1.000000     H
    H   1.0     0.030084     0.070903     0.415279  Biso 1.000000     H
    H   1.0     0.530031     0.070868     0.415403  Biso 1.000000     H
    H   1.0     0.368703     0.539637     0.356312  Biso 1.000000     H
    H   1.0     0.868958     0.540077     0.356402  Biso 1.000000     H
    H   1.0     0.495101     0.619994     0.191498  Biso 1.000000     H
    H   1.0     0.995025     0.619674     0.191373  Biso 1.000000     H
    H   1.0     0.088301     0.603096     0.251919  Biso 1.000000     H
    H   1.0     0.588231     0.603131     0.252089  Biso 1.000000     H
    H   1.0     0.096868     0.617816     0.518936  Biso 1.000000     H
    H   1.0     0.596636     0.617678     0.519054  Biso 1.000000     H
    H   1.0     0.011039     0.610948     0.697924  Biso 1.000000     H
    H   1.0     0.510778     0.610729     0.698036  Biso 1.000000     H
    H   1.0     0.146782     0.749650     0.700939  Biso 1.000000     H
    H   1.0     0.646616     0.748926     0.701189  Biso 1.000000     H
    H   1.0     0.229106     0.708898     0.555445  Biso 1.000000     H
    H   1.0     0.728992     0.708269     0.555778  Biso 1.000000     H
    H   1.0     0.208184     0.822789     0.548107  Biso 1.000000     H
    H   1.0     0.708079     0.822129     0.548255  Biso 1.000000     H
    H   1.0     0.230909     0.950824     0.638831  Biso 1.000000     H
    H   1.0     0.730631     0.950303     0.638978  Biso 1.000000     H
    H   1.0     0.312420     0.040794     0.722798  Biso 1.000000     H
    H   1.0     0.812216     0.040607     0.722822  Biso 1.000000     H
    H   1.0     0.385361     0.787594     0.721701  Biso 1.000000     H
    H   1.0     0.885360     0.787632     0.721903  Biso 1.000000     H
    H   1.0     0.302975     0.696596     0.638206  Biso 1.000000     H
    H   1.0     0.802932     0.696336     0.638503  Biso 1.000000     H
    H   1.0     0.130610     0.351407     0.952382  Biso 1.000000     H
    H   1.0     0.630169     0.350908     0.952630  Biso 1.000000     H
    H   1.0     0.257220     0.204102     0.880688  Biso 1.000000     H
    H   1.0     0.757069     0.204174     0.880862  Biso 1.000000     H
    H   1.0     0.122982     0.056534     0.882671  Biso 1.000000     H
    H   1.0     0.622914     0.056253     0.882903  Biso 1.000000     H
    H   1.0     0.024020     0.091473     0.973558  Biso 1.000000     H
    H   1.0     0.523783     0.090683     0.973701  Biso 1.000000     H
    H   1.0     0.019521     0.212203     0.947604  Biso 1.000000     H
    H   1.0     0.519200     0.211456     0.947927  Biso 1.000000     H
    H   1.0     0.499714     0.229300     0.828614  Biso 1.000000     H
    H   1.0     0.999672     0.229585     0.828385  Biso 1.000000     H
    H   1.0     0.426238     0.134784     0.741311  Biso 1.000000     H
    H   1.0     0.926056     0.134809     0.741232  Biso 1.000000     H
    H   1.0     0.393897     0.834679     0.829477  Biso 1.000000     H
    H   1.0     0.894006     0.834971     0.829607  Biso 1.000000     H
    H   1.0     0.470135     0.929673     0.915417  Biso 1.000000     H
    H   1.0     0.970383     0.930239     0.915400  Biso 1.000000     H
    C   1.0     0.198974     0.481508     0.563510  Biso 1.000000     C
    C   1.0     0.699416     0.481949     0.563483  Biso 1.000000     C
    C   1.0     0.195602     0.449736     0.631266  Biso 1.000000     C
    C   1.0     0.696006     0.449954     0.631212  Biso 1.000000     C
    C   1.0     0.139059     0.443730     0.666653  Biso 1.000000     C
    C   1.0     0.639501     0.443989     0.666654  Biso 1.000000     C
    C   1.0     0.134132     0.420598     0.731013  Biso 1.000000     C
    C   1.0     0.634570     0.420738     0.731004  Biso 1.000000     C
    C   1.0     0.188013     0.401474     0.758974  Biso 1.000000     C
    C   1.0     0.688436     0.401498     0.758911  Biso 1.000000     C
    C   1.0     0.245257     0.409794     0.724611  Biso 1.000000     C
    C   1.0     0.745638     0.409758     0.724497  Biso 1.000000     C
    C   1.0     0.250240     0.434251     0.660661  Biso 1.000000     C
    C   1.0     0.750615     0.434297     0.660554  Biso 1.000000     C
    C   1.0     0.313256     0.442504     0.625668  Biso 1.000000     C
    C   1.0     0.813647     0.442591     0.625569  Biso 1.000000     C
    C   1.0     0.275491     0.369490     0.431985  Biso 1.000000     C
    C   1.0     0.775724     0.370086     0.431871  Biso 1.000000     C
    C   1.0     0.232300     0.368494     0.339110  Biso 1.000000     C
    C   1.0     0.732375     0.368908     0.339047  Biso 1.000000     C
    C   1.0     0.265337     0.300077     0.336812  Biso 1.000000     C
    C   1.0     0.765542     0.300672     0.336695  Biso 1.000000     C
    C   1.0     0.330769     0.238417     0.418945  Biso 1.000000     C
    C   1.0     0.831251     0.239354     0.418748  Biso 1.000000     C
    C   1.0     0.352995     0.184110     0.367344  Biso 1.000000     C
    C   1.0     0.853359     0.184862     0.367161  Biso 1.000000     C
    C   1.0     0.307796     0.087192     0.342870  Biso 1.000000     C
    C   1.0     0.808067     0.087956     0.342748  Biso 1.000000     C
    C   1.0     0.328251     0.036062     0.295620  Biso 1.000000     C
    C   1.0     0.828434     0.036619     0.295549  Biso 1.000000     C
    C   1.0     0.394718     0.079466     0.271397  Biso 1.000000     C
    C   1.0     0.894901     0.079786     0.271313  Biso 1.000000     C
    C   1.0     0.439716     0.176957     0.296040  Biso 1.000000     C
    C   1.0     0.939994     0.177256     0.295900  Biso 1.000000     C
    C   1.0     0.419275     0.228696     0.343228  Biso 1.000000     C
    C   1.0     0.919643     0.229208     0.343035  Biso 1.000000     C
    C   1.0     0.501091     0.705608     0.067220  Biso 1.000000     C
    C   1.0     0.000000     0.705048     0.067281  Biso 1.000000     C
    C   1.0     0.103811     0.784320     0.104084  Biso 1.000000     C
    C   1.0     0.603947     0.784957     0.104191  Biso 1.000000     C
    C   1.0     0.075484     0.859079     0.102819  Biso 1.000000     C
    C   1.0     0.575594     0.859681     0.102817  Biso 1.000000     C
    C   1.0     0.460336     0.855284     0.066614  Biso 1.000000     C
    C   1.0     0.960185     0.854819     0.066734  Biso 1.000000     C
    C   1.0     0.446730     0.913725     0.121500  Biso 1.000000     C
    C   1.0     0.946676     0.913448     0.121578  Biso 1.000000     C
    C   1.0     0.405167     0.857521     0.170930  Biso 1.000000     C
    C   1.0     0.905050     0.857430     0.171019  Biso 1.000000     C
    C   1.0     0.389837     0.911339     0.219993  Biso 1.000000     C
    C   1.0     0.889788     0.911434     0.220026  Biso 1.000000     C
    C   1.0     0.415069     0.023168     0.221188  Biso 1.000000     C
    C   1.0     0.915158     0.023273     0.221156  Biso 1.000000     C
    C   1.0     0.458117     0.079150     0.172340  Biso 1.000000     C
    C   1.0     0.958262     0.079064     0.172294  Biso 1.000000     C
    C   1.0     0.473612     0.024956     0.123342  Biso 1.000000     C
    C   1.0     0.973686     0.024686     0.123351  Biso 1.000000     C
    C   1.0     0.300182     0.517829     0.064211  Biso 1.000000     C
    C   1.0     0.799485     0.517420     0.064457  Biso 1.000000     C
    C   1.0     0.303698     0.550264     0.131807  Biso 1.000000     C
    C   1.0     0.803233     0.550018     0.132079  Biso 1.000000     C
    C   1.0     0.360158     0.556192     0.167342  Biso 1.000000     C
    C   1.0     0.859844     0.555998     0.167439  Biso 1.000000     C
    C   1.0     0.365120     0.579816     0.231622  Biso 1.000000     C
    C   1.0     0.865122     0.579899     0.231696  Biso 1.000000     C
    C   1.0     0.311370     0.599561     0.259305  Biso 1.000000     C
    C   1.0     0.811586     0.600021     0.259543  Biso 1.000000     C
    C   1.0     0.254212     0.591404     0.224766  Biso 1.000000     C
    C   1.0     0.754275     0.591707     0.225228  Biso 1.000000     C
    C   1.0     0.249173     0.566388     0.160904  Biso 1.000000     C
    C   1.0     0.748865     0.566272     0.161412  Biso 1.000000     C
    C   1.0     0.186264     0.558067     0.125586  Biso 1.000000     C
    C   1.0     0.685537     0.557278     0.126611  Biso 1.000000     C
    C   1.0     0.224886     0.630881     0.932435  Biso 1.000000     C
    C   1.0     0.724762     0.631078     0.932577  Biso 1.000000     C
    C   1.0     0.268201     0.631725     0.839678  Biso 1.000000     C
    C   1.0     0.768158     0.631824     0.839866  Biso 1.000000     C
    C   1.0     0.235192     0.700175     0.837189  Biso 1.000000     C
    C   1.0     0.735312     0.700495     0.837347  Biso 1.000000     C
    C   1.0     0.169776     0.762150     0.919063  Biso 1.000000     C
    C   1.0     0.669961     0.762751     0.919118  Biso 1.000000     C
    C   1.0     0.147518     0.816343     0.867352  Biso 1.000000     C
    C   1.0     0.647669     0.816779     0.867340  Biso 1.000000     C
    C   1.0     0.192659     0.913291     0.842862  Biso 1.000000     C
    C   1.0     0.692760     0.913735     0.842819  Biso 1.000000     C
    C   1.0     0.172133     0.964398     0.795588  Biso 1.000000     C
    C   1.0     0.672184     0.964737     0.795525  Biso 1.000000     C
    C   1.0     0.105654     0.920920     0.771337  Biso 1.000000     C
    C   1.0     0.605706     0.921147     0.771277  Biso 1.000000     C
    C   1.0     0.060718     0.823397     0.796002  Biso 1.000000     C
    C   1.0     0.560826     0.823591     0.795953  Biso 1.000000     C
    C   1.0     0.081222     0.771693     0.843219  Biso 1.000000     C
    C   1.0     0.581380     0.771994     0.843195  Biso 1.000000     C
    C   1.0    -0.001627     0.294085     0.566923  Biso 1.000000     C
    C   1.0     0.498402     0.294480     0.567093  Biso 1.000000     C
    C   1.0     0.395723     0.214918     0.604355  Biso 1.000000     C
    C   1.0     0.895710     0.214744     0.604299  Biso 1.000000     C
    C   1.0     0.424198     0.140354     0.602915  Biso 1.000000     C
    C   1.0     0.924138     0.140117     0.602924  Biso 1.000000     C
    C   1.0     0.039338     0.144640     0.566474  Biso 1.000000     C
    C   1.0     0.539403     0.145039     0.566495  Biso 1.000000     C
    C   1.0     0.053153     0.086361     0.621391  Biso 1.000000     C
    C   1.0     0.553199     0.086664     0.621376  Biso 1.000000     C
    C   1.0     0.094823     0.142672     0.670756  Biso 1.000000     C
    C   1.0     0.594827     0.142924     0.670776  Biso 1.000000     C
    C   1.0     0.110337     0.088962     0.719824  Biso 1.000000     C
    C   1.0     0.610325     0.089173     0.719828  Biso 1.000000     C
    C   1.0     0.085186     0.977139     0.721098  Biso 1.000000     C
    C   1.0     0.585206     0.977349     0.721051  Biso 1.000000     C
    C   1.0     0.042053     0.921052     0.672305  Biso 1.000000     C
    C   1.0     0.542106     0.921304     0.672226  Biso 1.000000     C
    C   1.0     0.026372     0.975130     0.623308  Biso 1.000000     C
    C   1.0     0.526437     0.975430     0.623244  Biso 1.000000     C
    C   1.0     0.040467     0.480475     0.935567  Biso 1.000000     C
    C   1.0     0.540876     0.480520     0.935626  Biso 1.000000     C
    C   1.0     0.028085     0.448588     0.867834  Biso 1.000000     C
    C   1.0     0.528534     0.448830     0.867844  Biso 1.000000     C
    C   1.0     0.081863     0.443331     0.832455  Biso 1.000000     C
    C   1.0     0.582302     0.443476     0.832483  Biso 1.000000     C
    C   1.0     0.075405     0.420214     0.768100  Biso 1.000000     C
    C   1.0     0.575859     0.420385     0.768119  Biso 1.000000     C
    C   1.0     0.011913     0.400308     0.740152  Biso 1.000000     C
    C   1.0     0.512381     0.400534     0.740156  Biso 1.000000     C
    C   1.0     0.459077     0.408226     0.774494  Biso 1.000000     C
    C   1.0     0.958562     0.407860     0.774517  Biso 1.000000     C
    C   1.0     0.466117     0.432738     0.838433  Biso 1.000000     C
    C   1.0     0.965603     0.432319     0.838462  Biso 1.000000     C
    C   1.0     0.407060     0.440515     0.873406  Biso 1.000000     C
    C   1.0     0.906562     0.440160     0.873435  Biso 1.000000     C
    C   1.0     0.408872     0.367107     0.067831  Biso 1.000000     C
    C   1.0     0.908546     0.366814     0.067780  Biso 1.000000     C
    C   1.0     0.451420     0.367270     0.160912  Biso 1.000000     C
    C   1.0     0.951122     0.366822     0.160821  Biso 1.000000     C
    C   1.0     0.384317     0.299176     0.163342  Biso 1.000000     C
    C   1.0     0.884046     0.298608     0.163234  Biso 1.000000     C
    C   1.0     0.288304     0.236782     0.081165  Biso 1.000000     C
    C   1.0     0.788007     0.236316     0.081100  Biso 1.000000     C
    C   1.0     0.239005     0.182907     0.132813  Biso 1.000000     C
    C   1.0     0.738746     0.182508     0.132785  Biso 1.000000     C
    C   1.0     0.235314     0.085425     0.157032  Biso 1.000000     C
    C   1.0     0.735093     0.085078     0.157055  Biso 1.000000     C
    C   1.0     0.189292     0.034583     0.204249  Biso 1.000000     C
    C   1.0     0.689143     0.034336     0.204341  Biso 1.000000     C
    C   1.0     0.145041     0.078963     0.228773  Biso 1.000000     C
    C   1.0     0.644918     0.078758     0.228875  Biso 1.000000     C
    C   1.0     0.149225     0.177021     0.204381  Biso 1.000000     C
    C   1.0     0.649067     0.176767     0.204436  Biso 1.000000     C
    C   1.0     0.195459     0.228386     0.157164  Biso 1.000000     C
    C   1.0     0.695238     0.228039     0.157156  Biso 1.000000     C
    C   1.0     0.351505     0.707462     0.433110  Biso 1.000000     C
    C   1.0     0.851484     0.707697     0.433212  Biso 1.000000     C
    C   1.0     0.288979     0.787854     0.395488  Biso 1.000000     C
    C   1.0     0.789072     0.788168     0.395445  Biso 1.000000     C
    C   1.0     0.354689     0.861823     0.396894  Biso 1.000000     C
    C   1.0     0.854828     0.861990     0.396729  Biso 1.000000     C
    C   1.0     0.467186     0.855798     0.433599  Biso 1.000000     C
    C   1.0     0.967276     0.855809     0.433459  Biso 1.000000     C
    C   1.0     0.010166     0.914092     0.378624  Biso 1.000000     C
    C   1.0     0.510077     0.914037     0.378768  Biso 1.000000     C
    C   1.0     0.023023     0.857712     0.328873  Biso 1.000000     C
    C   1.0     0.522909     0.857609     0.329030  Biso 1.000000     C
    C   1.0     0.065293     0.911275     0.279853  Biso 1.000000     C
    C   1.0     0.565178     0.911131     0.280001  Biso 1.000000     C
    C   1.0     0.096584     0.023034     0.278994  Biso 1.000000     C
    C   1.0     0.596490     0.022887     0.279125  Biso 1.000000     C
    C   1.0     0.082156     0.079254     0.328169  Biso 1.000000     C
    C   1.0     0.582089     0.079155     0.328290  Biso 1.000000     C
    C   1.0     0.039544     0.025308     0.377133  Biso 1.000000     C
    C   1.0     0.539477     0.025249     0.377263  Biso 1.000000     C
    C   1.0     0.458869     0.520486     0.436511  Biso 1.000000     C
    C   1.0     0.959274     0.520994     0.436515  Biso 1.000000     C
    C   1.0     0.471122     0.552104     0.368718  Biso 1.000000     C
    C   1.0     0.971366     0.552431     0.368682  Biso 1.000000     C
    C   1.0     0.417362     0.557374     0.333246  Biso 1.000000     C
    C   1.0     0.917557     0.557649     0.333256  Biso 1.000000     C
    C   1.0     0.423785     0.580126     0.268839  Biso 1.000000     C
    C   1.0     0.923859     0.580189     0.268814  Biso 1.000000     C
    C   1.0     0.487193     0.599590     0.240903  Biso 1.000000     C
    C   1.0     0.987204     0.599448     0.240805  Biso 1.000000     C
    C   1.0     0.040599     0.592038     0.275242  Biso 1.000000     C
    C   1.0     0.540503     0.592053     0.275365  Biso 1.000000     C
    C   1.0     0.033729     0.568258     0.339280  Biso 1.000000     C
    C   1.0     0.533512     0.568059     0.339371  Biso 1.000000     C
    C   1.0     0.092840     0.560718     0.374362  Biso 1.000000     C
    C   1.0     0.592649     0.560645     0.374440  Biso 1.000000     C
    C   1.0     0.091283     0.632760     0.568171  Biso 1.000000     C
    C   1.0     0.591053     0.632551     0.568300  Biso 1.000000     C
    C   1.0     0.049032     0.633262     0.661257  Biso 1.000000     C
    C   1.0     0.548788     0.632992     0.661385  Biso 1.000000     C
    C   1.0     0.116104     0.701533     0.663464  Biso 1.000000     C
    C   1.0     0.615911     0.701018     0.663661  Biso 1.000000     C
    C   1.0     0.211835     0.763418     0.581103  Biso 1.000000     C
    C   1.0     0.711690     0.762846     0.581340  Biso 1.000000     C
    C   1.0     0.261247     0.817385     0.632675  Biso 1.000000     C
    C   1.0     0.761075     0.816964     0.632905  Biso 1.000000     C
    C   1.0     0.264904     0.914831     0.656868  Biso 1.000000     C
    C   1.0     0.764687     0.914433     0.657023  Biso 1.000000     C
    C   1.0     0.310886     0.965639     0.704140  Biso 1.000000     C
    C   1.0     0.810712     0.965430     0.704230  Biso 1.000000     C
    C   1.0     0.355169     0.921301     0.728720  Biso 1.000000     C
    C   1.0     0.855074     0.921253     0.728826  Biso 1.000000     C
    C   1.0     0.351039     0.823292     0.704347  Biso 1.000000     C
    C   1.0     0.850978     0.823209     0.704537  Biso 1.000000     C
    C   1.0     0.304809     0.771932     0.657096  Biso 1.000000     C
    C   1.0     0.804716     0.771673     0.657345  Biso 1.000000     C
    C   1.0     0.148737     0.293371     0.933208  Biso 1.000000     C
    C   1.0     0.648388     0.292984     0.933446  Biso 1.000000     C
    C   1.0     0.211080     0.212743     0.895617  Biso 1.000000     C
    C   1.0     0.710878     0.212634     0.895804  Biso 1.000000     C
    C   1.0     0.145281     0.139063     0.896718  Biso 1.000000     C
    C   1.0     0.645128     0.138787     0.896948  Biso 1.000000     C
    C   1.0     0.032882     0.145446     0.933322  Biso 1.000000     C
    C   1.0     0.532639     0.144819     0.933547  Biso 1.000000     C
    C   1.0     0.489841     0.086412     0.878697  Biso 1.000000     C
    C   1.0     0.989970     0.086865     0.878559  Biso 1.000000     C
    C   1.0     0.476940     0.142714     0.828884  Biso 1.000000     C
    C   1.0     0.976935     0.143003     0.828733  Biso 1.000000     C
    C   1.0     0.434755     0.089055     0.779818  Biso 1.000000     C
    C   1.0     0.934668     0.089191     0.779750  Biso 1.000000     C
    C   1.0     0.403591     0.977283     0.778979  Biso 1.000000     C
    C   1.0     0.903551     0.977416     0.779009  Biso 1.000000     C
    C   1.0     0.418089     0.921145     0.828208  Biso 1.000000     C
    C   1.0     0.918164     0.921436     0.828260  Biso 1.000000     C
    C   1.0     0.460618     0.975190     0.877221  Biso 1.000000     C
    C   1.0     0.960773     0.975635     0.877188  Biso 1.000000     C
    N   1.0     0.239100     0.411443     0.398598  Biso 1.000000     N
    N   1.0     0.739192     0.411857     0.398535  Biso 1.000000     N
    N   1.0     0.292525     0.301536     0.395900  Biso 1.000000     N
    N   1.0     0.792828     0.302239     0.395752  Biso 1.000000     N
    N   1.0     0.056801     0.688663     0.081989  Biso 1.000000     N
    N   1.0     0.557012     0.689269     0.082056  Biso 1.000000     N
    N   1.0     0.010164     0.807453     0.079714  Biso 1.000000     N
    N   1.0     0.510329     0.808002     0.079606  Biso 1.000000     N
    N   1.0     0.261314     0.588865     0.899211  Biso 1.000000     N
    N   1.0     0.761117     0.588892     0.899385  Biso 1.000000     N
    N   1.0     0.207926     0.698820     0.896199  Biso 1.000000     N
    N   1.0     0.707991     0.699198     0.896324  Biso 1.000000     N
    N   1.0     0.442469     0.310645     0.582078  Biso 1.000000     N
    N   1.0     0.942465     0.310374     0.581910  Biso 1.000000     N
    N   1.0     0.489349     0.192165     0.579537  Biso 1.000000     N
    N   1.0     0.989270     0.191796     0.579469  Biso 1.000000     N
    N   1.0     0.466093     0.409271     0.101200  Biso 1.000000     N
    N   1.0     0.965765     0.408999     0.101148  Biso 1.000000     N
    N   1.0     0.357939     0.299920     0.104127  Biso 1.000000     N
    N   1.0     0.857652     0.299445     0.104041  Biso 1.000000     N
    N   1.0     0.287655     0.691957     0.418024  Biso 1.000000     N
    N   1.0     0.787644     0.692312     0.418148  Biso 1.000000     N
    N   1.0     0.393700     0.809475     0.420505  Biso 1.000000     N
    N   1.0     0.893768     0.809592     0.420426  Biso 1.000000     N
    N   1.0     0.034188     0.590720     0.601689  Biso 1.000000     N
    N   1.0     0.533916     0.590636     0.601774  Biso 1.000000     N
    N   1.0     0.142284     0.700376     0.604244  Biso 1.000000     N
    N   1.0     0.642103     0.699908     0.604440  Biso 1.000000     N
    N   1.0     0.212582     0.308602     0.918334  Biso 1.000000     N
    N   1.0     0.712252     0.308423     0.918523  Biso 1.000000     N
    N   1.0     0.106389     0.191561     0.920315  Biso 1.000000     N
    N   1.0     0.606145     0.191110     0.920583  Biso 1.000000     N
    O   1.0     0.147676     0.431919     0.528302  Biso 1.000000     O
    O   1.0     0.647957     0.432844     0.528322  Biso 1.000000     O
    O   1.0     0.251350     0.557980     0.544203  Biso 1.000000     O
    O   1.0     0.751936     0.558113     0.544167  Biso 1.000000     O
    O   1.0     0.307407     0.386528     0.576629  Biso 1.000000     O
    O   1.0     0.807874     0.387021     0.576360  Biso 1.000000     O
    O   1.0     0.370459     0.503900     0.647992  Biso 1.000000     O
    O   1.0     0.870832     0.503625     0.648088  Biso 1.000000     O
    O   1.0     0.351831     0.566326     0.029125  Biso 1.000000     O
    O   1.0     0.850991     0.566238     0.029245  Biso 1.000000     O
    O   1.0     0.247446     0.442096     0.044967  Biso 1.000000     O
    O   1.0     0.746827     0.441497     0.045299  Biso 1.000000     O
    O   1.0     0.192217     0.615397     0.077115  Biso 1.000000     O
    O   1.0     0.690964     0.612632     0.077257  Biso 1.000000     O
    O   1.0     0.129053     0.495218     0.147082  Biso 1.000000     O
    O   1.0     0.628589     0.495985     0.149208  Biso 1.000000     O
    O   1.0     0.066592     0.430100     0.970856  Biso 1.000000     O
    O   1.0     0.566181     0.429224     0.971035  Biso 1.000000     O
    O   1.0     0.026754     0.557571     0.954701  Biso 1.000000     O
    O   1.0     0.527878     0.558349     0.954681  Biso 1.000000     O
    O   1.0     0.386179     0.386089     0.923211  Biso 1.000000     O
    O   1.0     0.885353     0.385262     0.923041  Biso 1.000000     O
    O   1.0     0.379218     0.499970     0.850593  Biso 1.000000     O
    O   1.0     0.879065     0.500149     0.850745  Biso 1.000000     O
    O   1.0     0.432607     0.570578     0.471769  Biso 1.000000     O
    O   1.0     0.933075     0.571096     0.471803  Biso 1.000000     O
    O   1.0     0.472890     0.443676     0.455772  Biso 1.000000     O
    O   1.0     0.973348     0.444210     0.455761  Biso 1.000000     O
    O   1.0     0.114490     0.616370     0.423563  Biso 1.000000     O
    O   1.0     0.614132     0.616136     0.423717  Biso 1.000000     O
    O   1.0     0.120001     0.500038     0.351915  Biso 1.000000     O
    O   1.0     0.620016     0.500303     0.351904  Biso 1.000000     O
   Cd   1.0     0.197450     0.531757     0.436637  Biso 1.000000    Cd
   Cd   1.0     0.697442     0.532062     0.436607  Biso 1.000000    Cd
   Cd   1.0     0.302954     0.468435     0.937102  Biso 1.000000    Cd
   Cd   1.0     0.802566     0.468264     0.937284  Biso 1.000000    Cd
   Cd   1.0     0.067326     0.528637     0.062810  Biso 1.000000    Cd
   Cd   1.0     0.567468     0.529017     0.062942  Biso 1.000000    Cd
   Cd   1.0     0.432259     0.471219     0.563559  Biso 1.000000    Cd
   Cd   1.0     0.932592     0.471211     0.563478  Biso 1.000000    Cd
