#======================================================================

# CRYSTAL DATA

#----------------------------------------------------------------------

data_VESTA_phase_1


_pd_phase_name                         MOF
_cell_length_a                         14.51000
_cell_length_b                         19.40800
_cell_length_c                         26.34300
_cell_angle_alpha                      90.00000
_cell_angle_beta                       90.00100
_cell_angle_gamma                      90.00200
_symmetry_space_group_name_H-M         "P 1"
_symmetry_Int_Tables_number            1

loop_
_symmetry_equiv_pos_as_xyz
   "x, y, z"

loop_
   _atom_site_label
   _atom_site_occupancy
   _atom_site_fract_x
   _atom_site_fract_y
   _atom_site_fract_z
   _atom_site_adp_type
   _atom_site_B_iso_or_equiv
   _atom_site_type_symbol
    H   1.0     0.061691     0.124656     0.033846  Biso 1.000000     H
    H   1.0     0.561721     0.124653     0.033843  Biso 1.000000     H
    H   1.0     0.068682     0.233673     0.984674  Biso 1.000000     H
    H   1.0     0.568693     0.233672     0.984674  Biso 1.000000     H
    H   1.0     0.477355     0.318163     0.946998  Biso 1.000000     H
    H   1.0     0.977369     0.318166     0.946997  Biso 1.000000     H
    H   1.0     0.132456     0.416556     0.755194  Biso 1.000000     H
    H   1.0     0.632466     0.416562     0.755199  Biso 1.000000     H
    H   1.0     0.035028     0.208816     0.732672  Biso 1.000000     H
    H   1.0     0.535043     0.208824     0.732663  Biso 1.000000     H
    H   1.0     0.015848     0.420207     0.804231  Biso 1.000000     H
    H   1.0     0.515855     0.420209     0.804233  Biso 1.000000     H
    H   1.0     0.183704     0.420548     0.665495  Biso 1.000000     H
    H   1.0     0.683728     0.420563     0.665506  Biso 1.000000     H
    H   1.0     0.070566     0.203040     0.817227  Biso 1.000000     H
    H   1.0     0.570575     0.203042     0.817226  Biso 1.000000     H
    H   1.0     0.090302     0.212955     0.643936  Biso 1.000000     H
    H   1.0     0.590322     0.212973     0.643930  Biso 1.000000     H
    H   1.0     0.038410     0.949761     0.059636  Biso 1.000000     H
    H   1.0     0.538482     0.949742     0.059621  Biso 1.000000     H
    H   1.0     0.459940     0.128598     0.853823  Biso 1.000000     H
    H   1.0     0.959955     0.128599     0.853822  Biso 1.000000     H
    H   1.0     0.392944     0.479456     0.836018  Biso 1.000000     H
    H   1.0     0.892961     0.479457     0.836013  Biso 1.000000     H
    H   1.0     0.042273     0.424922     0.971449  Biso 1.000000     H
    H   1.0     0.542285     0.424922     0.971450  Biso 1.000000     H
    H   1.0     0.364970     0.596650     0.871293  Biso 1.000000     H
    H   1.0     0.864990     0.596652     0.871288  Biso 1.000000     H
    H   1.0     0.451488     0.019928     0.903750  Biso 1.000000     H
    H   1.0     0.951490     0.019931     0.903749  Biso 1.000000     H
    H   1.0     0.018846     0.543051     0.004808  Biso 1.000000     H
    H   1.0     0.518854     0.543049     0.004812  Biso 1.000000     H
    H   1.0     0.438341     0.875358     0.533850  Biso 1.000000     H
    H   1.0     0.938416     0.875354     0.533855  Biso 1.000000     H
    H   1.0     0.431303     0.766354     0.484677  Biso 1.000000     H
    H   1.0     0.931309     0.766359     0.484674  Biso 1.000000     H
    H   1.0     0.022622     0.681862     0.447000  Biso 1.000000     H
    H   1.0     0.522645     0.681866     0.447004  Biso 1.000000     H
    H   1.0     0.367536     0.583460     0.255200  Biso 1.000000     H
    H   1.0     0.867543     0.583465     0.255195  Biso 1.000000     H
    H   1.0     0.464960     0.791200     0.232673  Biso 1.000000     H
    H   1.0     0.964969     0.791205     0.232674  Biso 1.000000     H
    H   1.0     0.484150     0.579812     0.304241  Biso 1.000000     H
    H   1.0     0.984153     0.579816     0.304234  Biso 1.000000     H
    H   1.0     0.316283     0.579464     0.165502  Biso 1.000000     H
    H   1.0     0.816297     0.579471     0.165494  Biso 1.000000     H
    H   1.0     0.429417     0.796978     0.317227  Biso 1.000000     H
    H   1.0     0.929422     0.796981     0.317225  Biso 1.000000     H
    H   1.0     0.409687     0.787055     0.143937  Biso 1.000000     H
    H   1.0     0.909700     0.787064     0.143936  Biso 1.000000     H
    H   1.0     0.461683     0.050231     0.559657  Biso 1.000000     H
    H   1.0     0.961965     0.050169     0.559711  Biso 1.000000     H
    H   1.0     0.040017     0.871422     0.353813  Biso 1.000000     H
    H   1.0     0.540043     0.871424     0.353822  Biso 1.000000     H
    H   1.0     0.107032     0.520568     0.336016  Biso 1.000000     H
    H   1.0     0.607058     0.520567     0.336028  Biso 1.000000     H
    H   1.0     0.457729     0.575108     0.471460  Biso 1.000000     H
    H   1.0     0.957744     0.575109     0.471454  Biso 1.000000     H
    H   1.0     0.135001     0.403372     0.371290  Biso 1.000000     H
    H   1.0     0.635035     0.403376     0.371305  Biso 1.000000     H
    H   1.0     0.048552     0.980084     0.403747  Biso 1.000000     H
    H   1.0     0.548533     0.980091     0.403752  Biso 1.000000     H
    H   1.0     0.481172     0.456971     0.504823  Biso 1.000000     H
    H   1.0     0.981175     0.456967     0.504812  Biso 1.000000     H
    H   1.0     0.311609     0.375348     0.033851  Biso 1.000000     H
    H   1.0     0.811725     0.375356     0.033842  Biso 1.000000     H
    H   1.0     0.318686     0.266360     0.984670  Biso 1.000000     H
    H   1.0     0.818698     0.266354     0.984673  Biso 1.000000     H
    H   1.0     0.227358     0.181861     0.946996  Biso 1.000000     H
    H   1.0     0.727366     0.181857     0.946998  Biso 1.000000     H
    H   1.0     0.382464     0.083466     0.755197  Biso 1.000000     H
    H   1.0     0.882473     0.083465     0.755201  Biso 1.000000     H
    H   1.0     0.285034     0.291198     0.732666  Biso 1.000000     H
    H   1.0     0.785047     0.291198     0.732664  Biso 1.000000     H
    H   1.0     0.265856     0.079812     0.804234  Biso 1.000000     H
    H   1.0     0.765867     0.079813     0.804234  Biso 1.000000     H
    H   1.0     0.433713     0.079469     0.665499  Biso 1.000000     H
    H   1.0     0.933726     0.079465     0.665504  Biso 1.000000     H
    H   1.0     0.320574     0.296982     0.817221  Biso 1.000000     H
    H   1.0     0.820577     0.296984     0.817224  Biso 1.000000     H
    H   1.0     0.340306     0.287055     0.643930  Biso 1.000000     H
    H   1.0     0.840323     0.287050     0.643929  Biso 1.000000     H
    H   1.0     0.288113     0.550185     0.059698  Biso 1.000000     H
    H   1.0     0.788489     0.550278     0.059620  Biso 1.000000     H
    H   1.0     0.209955     0.371422     0.853810  Biso 1.000000     H
    H   1.0     0.709940     0.371421     0.853822  Biso 1.000000     H
    H   1.0     0.142945     0.020564     0.836018  Biso 1.000000     H
    H   1.0     0.642956     0.020561     0.836017  Biso 1.000000     H
    H   1.0     0.292295     0.075103     0.971448  Biso 1.000000     H
    H   1.0     0.792305     0.075101     0.971448  Biso 1.000000     H
    H   1.0     0.114970     0.903378     0.871292  Biso 1.000000     H
    H   1.0     0.614981     0.903376     0.871291  Biso 1.000000     H
    H   1.0     0.201432     0.480084     0.903743  Biso 1.000000     H
    H   1.0     0.701485     0.480091     0.903749  Biso 1.000000     H
    H   1.0     0.268864     0.956967     0.004807  Biso 1.000000     H
    H   1.0     0.768874     0.956965     0.004807  Biso 1.000000     H
    H   1.0     0.188283     0.624657     0.533841  Biso 1.000000     H
    H   1.0     0.688621     0.624657     0.533871  Biso 1.000000     H
    H   1.0     0.181296     0.733667     0.484674  Biso 1.000000     H
    H   1.0     0.681290     0.733625     0.484669  Biso 1.000000     H
    H   1.0     0.272632     0.818164     0.447002  Biso 1.000000     H
    H   1.0     0.772630     0.818149     0.447000  Biso 1.000000     H
    H   1.0     0.117524     0.916553     0.255198  Biso 1.000000     H
    H   1.0     0.617535     0.916555     0.255195  Biso 1.000000     H
    H   1.0     0.214956     0.708819     0.232671  Biso 1.000000     H
    H   1.0     0.714966     0.708821     0.232672  Biso 1.000000     H
    H   1.0     0.234132     0.920209     0.304237  Biso 1.000000     H
    H   1.0     0.734146     0.920207     0.304239  Biso 1.000000     H
    H   1.0     0.066279     0.920548     0.165498  Biso 1.000000     H
    H   1.0     0.566292     0.920548     0.165494  Biso 1.000000     H
    H   1.0     0.179420     0.703038     0.317226  Biso 1.000000     H
    H   1.0     0.679408     0.703040     0.317218  Biso 1.000000     H
    H   1.0     0.159686     0.712963     0.143934  Biso 1.000000     H
    H   1.0     0.659698     0.712961     0.143934  Biso 1.000000     H
    H   1.0     0.211517     0.449737     0.559621  Biso 1.000000     H
    H   1.0     0.712926     0.449994     0.559885  Biso 1.000000     H
    H   1.0     0.290058     0.628603     0.353826  Biso 1.000000     H
    H   1.0     0.789980     0.628600     0.353785  Biso 1.000000     H
    H   1.0     0.357039     0.979461     0.336021  Biso 1.000000     H
    H   1.0     0.857053     0.979451     0.336024  Biso 1.000000     H
    H   1.0     0.207706     0.924918     0.471453  Biso 1.000000     H
    H   1.0     0.707713     0.924911     0.471455  Biso 1.000000     H
    H   1.0     0.385014     0.096647     0.371296  Biso 1.000000     H
    H   1.0     0.885030     0.096636     0.371298  Biso 1.000000     H
    H   1.0     0.298517     0.519933     0.403752  Biso 1.000000     H
    H   1.0     0.798668     0.519951     0.403726  Biso 1.000000     H
    H   1.0     0.231146     0.043047     0.504811  Biso 1.000000     H
    H   1.0     0.731156     0.043040     0.504813  Biso 1.000000     H
    C   1.0     0.046764     0.311524     0.804115  Biso 1.000000     C
    C   1.0     0.546771     0.311527     0.804115  Biso 1.000000     C
    C   1.0     0.038796     0.125909     0.994471  Biso 1.000000     C
    C   1.0     0.538822     0.125906     0.994469  Biso 1.000000     C
    C   1.0     0.042240     0.186980     0.966805  Biso 1.000000     C
    C   1.0     0.542255     0.186979     0.966804  Biso 1.000000     C
    C   1.0     0.078937     0.312464     0.750792  Biso 1.000000     C
    C   1.0     0.578952     0.312470     0.750792  Biso 1.000000     C
    C   1.0     0.138551     0.317523     0.648577  Biso 1.000000     C
    C   1.0     0.638580     0.317540     0.648577  Biso 1.000000     C
    C   1.0    -0.002145     0.316371     0.907280  Biso 1.000000     C
    C   1.0     0.497862     0.316370     0.907281  Biso 1.000000     C
    C   1.0     0.120998     0.372056     0.730729  Biso 1.000000     C
    C   1.0     0.621008     0.372064     0.730732  Biso 1.000000     C
    C   1.0     0.068644     0.255241     0.718623  Biso 1.000000     C
    C   1.0     0.568656     0.255252     0.718618  Biso 1.000000     C
    C   1.0     0.017911     0.373245     0.826834  Biso 1.000000     C
    C   1.0     0.517917     0.373246     0.826835  Biso 1.000000     C
    C   1.0     0.494742     0.376867     0.878325  Biso 1.000000     C
    C   1.0     0.994755     0.376867     0.878323  Biso 1.000000     C
    C   1.0     0.150131     0.374657     0.680500  Biso 1.000000     C
    C   1.0     0.650148     0.374670     0.680504  Biso 1.000000     C
    C   1.0     0.046529     0.251331     0.833658  Biso 1.000000     C
    C   1.0     0.546537     0.251332     0.833657  Biso 1.000000     C
    C   1.0     0.020769     0.252999     0.885098  Biso 1.000000     C
    C   1.0     0.520779     0.252999     0.885097  Biso 1.000000     C
    C   1.0     0.015985     0.188818     0.915324  Biso 1.000000     C
    C   1.0     0.515997     0.188817     0.915323  Biso 1.000000     C
    C   1.0     0.098029     0.257764     0.668398  Biso 1.000000     C
    C   1.0     0.598044     0.257782     0.668393  Biso 1.000000     C
    C   1.0     0.173905     0.319019     0.595253  Biso 1.000000     C
    C   1.0     0.673969     0.319036     0.595258  Biso 1.000000     C
    C   1.0     0.002475     0.998299     0.998893  Biso 1.000000     C
    C   1.0     0.502517     0.998291     0.998888  Biso 1.000000     C
    C   1.0     0.006637     0.065062     0.971666  Biso 1.000000     C
    C   1.0     0.506665     0.065058     0.971664  Biso 1.000000     C
    C   1.0     0.471206     0.444261     0.900822  Biso 1.000000     C
    C   1.0     0.971223     0.444263     0.900818  Biso 1.000000     C
    C   1.0     0.483460     0.127657     0.893072  Biso 1.000000     C
    C   1.0     0.983469     0.127658     0.893071  Biso 1.000000     C
    C   1.0     0.420803     0.493383     0.873068  Biso 1.000000     C
    C   1.0     0.920825     0.493386     0.873063  Biso 1.000000     C
    C   1.0     0.003001     0.462258     0.949393  Biso 1.000000     C
    C   1.0     0.503004     0.462256     0.949398  Biso 1.000000     C
    C   1.0     0.404821     0.558846     0.892611  Biso 1.000000     C
    C   1.0     0.904844     0.558850     0.892605  Biso 1.000000     C
    C   1.0     0.477979     0.066982     0.920836  Biso 1.000000     C
    C   1.0     0.977981     0.066984     0.920836  Biso 1.000000     C
    C   1.0    -0.009727     0.528553     0.968114  Biso 1.000000     C
    C   1.0     0.490270     0.528550     0.968120  Biso 1.000000     C
    C   1.0     0.442048     0.577719     0.939669  Biso 1.000000     C
    C   1.0     0.942071     0.577723     0.939663  Biso 1.000000     C
    C   1.0     0.435917     0.650623     0.957644  Biso 1.000000     C
    C   1.0     0.935932     0.650625     0.957641  Biso 1.000000     C
    C   1.0     0.453227     0.688493     0.304120  Biso 1.000000     C
    C   1.0     0.953230     0.688497     0.304116  Biso 1.000000     C
    C   1.0     0.461217     0.874113     0.494476  Biso 1.000000     C
    C   1.0     0.961280     0.874108     0.494478  Biso 1.000000     C
    C   1.0     0.457753     0.813045     0.466807  Biso 1.000000     C
    C   1.0     0.957774     0.813045     0.466806  Biso 1.000000     C
    C   1.0     0.421049     0.687552     0.250797  Biso 1.000000     C
    C   1.0     0.921057     0.687557     0.250793  Biso 1.000000     C
    C   1.0     0.361436     0.682487     0.148581  Biso 1.000000     C
    C   1.0     0.861452     0.682496     0.148577  Biso 1.000000     C
    C   1.0     0.502136     0.683657     0.407287  Biso 1.000000     C
    C   1.0     0.000000     0.683655     0.407283  Biso 1.000000     C
    C   1.0     0.378996     0.627958     0.230734  Biso 1.000000     C
    C   1.0     0.879002     0.627964     0.230730  Biso 1.000000     C
    C   1.0     0.431349     0.744772     0.218626  Biso 1.000000     C
    C   1.0     0.931356     0.744779     0.218624  Biso 1.000000     C
    C   1.0     0.482084     0.626775     0.326843  Biso 1.000000     C
    C   1.0     0.982086     0.626778     0.326837  Biso 1.000000     C
    C   1.0     0.005241     0.623158     0.378326  Biso 1.000000     C
    C   1.0     0.505261     0.623158     0.378333  Biso 1.000000     C
    C   1.0     0.349864     0.625354     0.180505  Biso 1.000000     C
    C   1.0     0.849874     0.625361     0.180499  Biso 1.000000     C
    C   1.0     0.453457     0.748689     0.333661  Biso 1.000000     C
    C   1.0     0.953460     0.748691     0.333658  Biso 1.000000     C
    C   1.0     0.479212     0.747025     0.385101  Biso 1.000000     C
    C   1.0     0.979216     0.747025     0.385098  Biso 1.000000     C
    C   1.0     0.483995     0.811208     0.415325  Biso 1.000000     C
    C   1.0     0.984006     0.811208     0.415322  Biso 1.000000     C
    C   1.0     0.401967     0.742245     0.168400  Biso 1.000000     C
    C   1.0     0.901976     0.742254     0.168398  Biso 1.000000     C
    C   1.0     0.326071     0.680986     0.095258  Biso 1.000000     C
    C   1.0     0.826102     0.680998     0.095252  Biso 1.000000     C
    C   1.0     0.497567     0.001716     0.498902  Biso 1.000000     C
    C   1.0     0.997726     0.001691     0.498919  Biso 1.000000     C
    C   1.0     0.493387     0.934957     0.471672  Biso 1.000000     C
    C   1.0     0.993472     0.934946     0.471676  Biso 1.000000     C
    C   1.0     0.028772     0.555763     0.400821  Biso 1.000000     C
    C   1.0     0.528807     0.555768     0.400834  Biso 1.000000     C
    C   1.0     0.016527     0.872364     0.393066  Biso 1.000000     C
    C   1.0     0.516537     0.872366     0.393072  Biso 1.000000     C
    C   1.0     0.079171     0.506641     0.373066  Biso 1.000000     C
    C   1.0     0.579211     0.506645     0.373082  Biso 1.000000     C
    C   1.0     0.497023     0.537777     0.449413  Biso 1.000000     C
    C   1.0     0.997008     0.537769     0.449399  Biso 1.000000     C
    C   1.0     0.095152     0.441176     0.392607  Biso 1.000000     C
    C   1.0     0.595196     0.441183     0.392625  Biso 1.000000     C
    C   1.0     0.022060     0.933033     0.420835  Biso 1.000000     C
    C   1.0     0.522040     0.933038     0.420839  Biso 1.000000     C
    C   1.0     0.509764     0.471484     0.468138  Biso 1.000000     C
    C   1.0     0.000000     0.471473     0.468118  Biso 1.000000     C
    C   1.0     0.057926     0.422302     0.439664  Biso 1.000000     C
    C   1.0     0.557977     0.422312     0.439685  Biso 1.000000     C
    C   1.0     0.064061     0.349400     0.457643  Biso 1.000000     C
    C   1.0     0.564084     0.349402     0.457651  Biso 1.000000     C
    C   1.0     0.296771     0.188496     0.804113  Biso 1.000000     C
    C   1.0     0.796778     0.188497     0.804114  Biso 1.000000     C
    C   1.0     0.288730     0.374110     0.994473  Biso 1.000000     C
    C   1.0     0.788824     0.374119     0.994468  Biso 1.000000     C
    C   1.0     0.292225     0.313046     0.966801  Biso 1.000000     C
    C   1.0     0.792259     0.313046     0.966803  Biso 1.000000     C
    C   1.0     0.328947     0.187554     0.750791  Biso 1.000000     C
    C   1.0     0.828958     0.187555     0.750792  Biso 1.000000     C
    C   1.0     0.388558     0.182490     0.648577  Biso 1.000000     C
    C   1.0     0.888574     0.182485     0.648578  Biso 1.000000     C
    C   1.0     0.247865     0.183654     0.907279  Biso 1.000000     C
    C   1.0     0.747872     0.183652     0.907281  Biso 1.000000     C
    C   1.0     0.371004     0.127962     0.730730  Biso 1.000000     C
    C   1.0     0.871014     0.127961     0.730733  Biso 1.000000     C
    C   1.0     0.318648     0.244773     0.718619  Biso 1.000000     C
    C   1.0     0.818661     0.244771     0.718618  Biso 1.000000     C
    C   1.0     0.267919     0.126776     0.826834  Biso 1.000000     C
    C   1.0     0.767928     0.126776     0.826835  Biso 1.000000     C
    C   1.0     0.244745     0.123156     0.878324  Biso 1.000000     C
    C   1.0     0.744754     0.123155     0.878324  Biso 1.000000     C
    C   1.0     0.400135     0.125359     0.680502  Biso 1.000000     C
    C   1.0     0.900147     0.125355     0.680505  Biso 1.000000     C
    C   1.0     0.296538     0.248692     0.833654  Biso 1.000000     C
    C   1.0     0.796542     0.248692     0.833656  Biso 1.000000     C
    C   1.0     0.270780     0.247026     0.885094  Biso 1.000000     C
    C   1.0     0.770784     0.247025     0.885097  Biso 1.000000     C
    C   1.0     0.265986     0.311207     0.915318  Biso 1.000000     C
    C   1.0     0.765999     0.311206     0.915322  Biso 1.000000     C
    C   1.0     0.348031     0.242247     0.668395  Biso 1.000000     C
    C   1.0     0.848046     0.242243     0.668394  Biso 1.000000     C
    C   1.0     0.423916     0.180991     0.595254  Biso 1.000000     C
    C   1.0     0.923942     0.180982     0.595256  Biso 1.000000     C
    C   1.0     0.252317     0.501707     0.998911  Biso 1.000000     C
    C   1.0     0.752524     0.501743     0.998887  Biso 1.000000     C
    C   1.0     0.256547     0.434949     0.971669  Biso 1.000000     C
    C   1.0     0.756666     0.434965     0.971663  Biso 1.000000     C
    C   1.0     0.221213     0.055761     0.900821  Biso 1.000000     C
    C   1.0     0.721225     0.055758     0.900820  Biso 1.000000     C
    C   1.0     0.233449     0.372363     0.893062  Biso 1.000000     C
    C   1.0     0.733460     0.372364     0.893071  Biso 1.000000     C
    C   1.0     0.170810     0.006636     0.873066  Biso 1.000000     C
    C   1.0     0.670822     0.006633     0.873065  Biso 1.000000     C
    C   1.0     0.253018     0.037766     0.949394  Biso 1.000000     C
    C   1.0     0.753029     0.037763     0.949394  Biso 1.000000     C
    C   1.0     0.154825     0.941183     0.892608  Biso 1.000000     C
    C   1.0     0.654836     0.941180     0.892607  Biso 1.000000     C
    C   1.0     0.227924     0.433033     0.920831  Biso 1.000000     C
    C   1.0     0.727979     0.433039     0.920835  Biso 1.000000     C
    C   1.0     0.240283     0.971482     0.968115  Biso 1.000000     C
    C   1.0     0.740295     0.971479     0.968114  Biso 1.000000     C
    C   1.0     0.192057     0.922311     0.939665  Biso 1.000000     C
    C   1.0     0.692069     0.922308     0.939664  Biso 1.000000     C
    C   1.0     0.185920     0.849409     0.957641  Biso 1.000000     C
    C   1.0     0.685929     0.849406     0.957642  Biso 1.000000     C
    C   1.0     0.203220     0.811525     0.304117  Biso 1.000000     C
    C   1.0     0.703221     0.811525     0.304116  Biso 1.000000     C
    C   1.0     0.211174     0.625903     0.494469  Biso 1.000000     C
    C   1.0     0.711454     0.625909     0.494489  Biso 1.000000     C
    C   1.0     0.207737     0.686976     0.466804  Biso 1.000000     C
    C   1.0     0.707806     0.686955     0.466802  Biso 1.000000     C
    C   1.0     0.171041     0.812464     0.250795  Biso 1.000000     C
    C   1.0     0.671050     0.812466     0.250793  Biso 1.000000     C
    C   1.0     0.111436     0.817527     0.148578  Biso 1.000000     C
    C   1.0     0.611449     0.817526     0.148576  Biso 1.000000     C
    C   1.0     0.252126     0.816370     0.407284  Biso 1.000000     C
    C   1.0     0.752121     0.816359     0.407283  Biso 1.000000     C
    C   1.0     0.128987     0.872056     0.230732  Biso 1.000000     C
    C   1.0     0.628997     0.872058     0.230729  Biso 1.000000     C
    C   1.0     0.181343     0.755245     0.218623  Biso 1.000000     C
    C   1.0     0.681353     0.755245     0.218623  Biso 1.000000     C
    C   1.0     0.232070     0.873246     0.326838  Biso 1.000000     C
    C   1.0     0.732077     0.873243     0.326840  Biso 1.000000     C
    C   1.0     0.255245     0.876867     0.378328  Biso 1.000000     C
    C   1.0     0.755250     0.876859     0.378330  Biso 1.000000     C
    C   1.0     0.099859     0.874660     0.180502  Biso 1.000000     C
    C   1.0     0.599871     0.874660     0.180499  Biso 1.000000     C
    C   1.0     0.203455     0.751330     0.333659  Biso 1.000000     C
    C   1.0     0.703444     0.751329     0.333654  Biso 1.000000     C
    C   1.0     0.229211     0.752997     0.385100  Biso 1.000000     C
    C   1.0     0.729196     0.752990     0.385095  Biso 1.000000     C
    C   1.0     0.233995     0.688815     0.415324  Biso 1.000000     C
    C   1.0     0.734003     0.688803     0.415312  Biso 1.000000     C
    C   1.0     0.151964     0.757771     0.168397  Biso 1.000000     C
    C   1.0     0.651975     0.757770     0.168397  Biso 1.000000     C
    C   1.0     0.076083     0.819026     0.095253  Biso 1.000000     C
    C   1.0     0.576100     0.819022     0.095251  Biso 1.000000     C
    C   1.0     0.247476     0.498281     0.498889  Biso 1.000000     C
    C   1.0     0.748260     0.498376     0.498970  Biso 1.000000     C
    C   1.0     0.243336     0.565058     0.471666  Biso 1.000000     C
    C   1.0     0.743727     0.565091     0.471688  Biso 1.000000     C
    C   1.0     0.278774     0.944264     0.400824  Biso 1.000000     C
    C   1.0     0.778789     0.944253     0.400828  Biso 1.000000     C
    C   1.0     0.266538     0.627659     0.393073  Biso 1.000000     C
    C   1.0     0.766540     0.627655     0.393047  Biso 1.000000     C
    C   1.0     0.329178     0.993387     0.373070  Biso 1.000000     C
    C   1.0     0.829194     0.993376     0.373074  Biso 1.000000     C
    C   1.0     0.246981     0.962257     0.449400  Biso 1.000000     C
    C   1.0     0.746995     0.962247     0.449403  Biso 1.000000     C
    C   1.0     0.345164     0.058840     0.392612  Biso 1.000000     C
    C   1.0     0.845182     0.058829     0.392615  Biso 1.000000     C
    C   1.0     0.272022     0.566984     0.420838  Biso 1.000000     C
    C   1.0     0.772174     0.566997     0.420821  Biso 1.000000     C
    C   1.0     0.259714     0.028541     0.468120  Biso 1.000000     C
    C   1.0     0.759732     0.028531     0.468124  Biso 1.000000     C
    C   1.0     0.307934     0.077713     0.439668  Biso 1.000000     C
    C   1.0     0.807952     0.077701     0.439672  Biso 1.000000     C
    C   1.0     0.314067     0.150616     0.457644  Biso 1.000000     C
    C   1.0     0.814075     0.150606     0.457644  Biso 1.000000     C
    O   1.0     0.363493     0.685939     0.948882  Biso 1.000000     O
    O   1.0     0.863504     0.685937     0.948882  Biso 1.000000     O
    O   1.0     0.006670     0.675091     0.980460  Biso 1.000000     O
    O   1.0     0.506681     0.675089     0.980459  Biso 1.000000     O
    O   1.0     0.464827     0.946907     0.980102  Biso 1.000000     O
    O   1.0     0.964832     0.946908     0.980101  Biso 1.000000     O
    O   1.0     0.221734     0.371331     0.580788  Biso 1.000000     O
    O   1.0     0.721883     0.371308     0.580811  Biso 1.000000     O
    O   1.0     0.160360     0.267109     0.566688  Biso 1.000000     O
    O   1.0     0.660375     0.267138     0.566684  Biso 1.000000     O
    O   1.0     0.042043     0.997985     0.044688  Biso 1.000000     O
    O   1.0     0.542129     0.997965     0.044671  Biso 1.000000     O
    O   1.0     0.136489     0.314088     0.448882  Biso 1.000000     O
    O   1.0     0.636495     0.314076     0.448881  Biso 1.000000     O
    O   1.0     0.493309     0.324941     0.480457  Biso 1.000000     O
    O   1.0     0.993320     0.324934     0.480457  Biso 1.000000     O
    O   1.0     0.035170     0.053130     0.480082  Biso 1.000000     O
    O   1.0     0.535174     0.053121     0.480099  Biso 1.000000     O
    O   1.0     0.278206     0.628688     0.080804  Biso 1.000000     O
    O   1.0     0.778268     0.628688     0.080787  Biso 1.000000     O
    O   1.0     0.339629     0.732891     0.066688  Biso 1.000000     O
    O   1.0     0.839644     0.732910     0.066688  Biso 1.000000     O
    O   1.0     0.458085     0.002002     0.544715  Biso 1.000000     O
    O   1.0     0.958488     0.001923     0.544795  Biso 1.000000     O
    O   1.0     0.113490     0.814094     0.948882  Biso 1.000000     O
    O   1.0     0.613498     0.814093     0.948882  Biso 1.000000     O
    O   1.0     0.256680     0.824945     0.980458  Biso 1.000000     O
    O   1.0     0.756689     0.824941     0.980458  Biso 1.000000     O
    O   1.0     0.214808     0.553135     0.980086  Biso 1.000000     O
    O   1.0     0.714831     0.553124     0.980102  Biso 1.000000     O
    O   1.0     0.471759     0.128687     0.580794  Biso 1.000000     O
    O   1.0     0.971804     0.128685     0.580803  Biso 1.000000     O
    O   1.0     0.410366     0.232899     0.566686  Biso 1.000000     O
    O   1.0     0.910383     0.232885     0.566685  Biso 1.000000     O
    O   1.0     0.291630     0.501945     0.044773  Biso 1.000000     O
    O   1.0     0.792137     0.502055     0.044670  Biso 1.000000     O
    O   1.0     0.386494     0.185932     0.448883  Biso 1.000000     O
    O   1.0     0.886499     0.185926     0.448882  Biso 1.000000     O
    O   1.0     0.243304     0.175081     0.480456  Biso 1.000000     O
    O   1.0     0.743306     0.175068     0.480452  Biso 1.000000     O
    O   1.0     0.285165     0.446898     0.480103  Biso 1.000000     O
    O   1.0     0.785200     0.446821     0.480003  Biso 1.000000     O
    O   1.0     0.028242     0.871331     0.080792  Biso 1.000000     O
    O   1.0     0.528265     0.871329     0.080786  Biso 1.000000     O
    O   1.0     0.089627     0.767116     0.066688  Biso 1.000000     O
    O   1.0     0.589640     0.767110     0.066688  Biso 1.000000     O
    O   1.0     0.207873     0.497961     0.544670  Biso 1.000000     O
    O   1.0     0.709963     0.498315     0.545079  Biso 1.000000     O
   Ba   1.0     0.191828     0.692489     0.998609  Biso 1.000000    Ba
   Ba   1.0     0.691836     0.692484     0.998608  Biso 1.000000    Ba
   Ba   1.0     0.308157     0.307538     0.498613  Biso 1.000000    Ba
   Ba   1.0     0.808161     0.307509     0.498601  Biso 1.000000    Ba
   Ba   1.0     0.441833     0.807545     0.998610  Biso 1.000000    Ba
   Ba   1.0     0.941845     0.807548     0.998608  Biso 1.000000    Ba
   Ba   1.0     0.058147     0.192480     0.498609  Biso 1.000000    Ba
   Ba   1.0     0.558157     0.192485     0.498615  Biso 1.000000    Ba
