#======================================================================

# CRYSTAL DATA

#----------------------------------------------------------------------

data_VESTA_phase_1


_pd_phase_name                         MOF
_cell_length_a                         16.15200
_cell_length_b                         16.38600
_cell_length_c                         17.29700
_cell_angle_alpha                      89.87500
_cell_angle_beta                       103.74900
_cell_angle_gamma                      90.01300
_symmetry_space_group_name_H-M         "P 1"
_symmetry_Int_Tables_number            1

loop_
_symmetry_equiv_pos_as_xyz
   "x, y, z"

loop_
   _atom_site_label
   _atom_site_occupancy
   _atom_site_fract_x
   _atom_site_fract_y
   _atom_site_fract_z
   _atom_site_adp_type
   _atom_site_B_iso_or_equiv
   _atom_site_type_symbol
    H   1.0     0.804482     0.968865     0.641958  Biso 1.000000     H
    H   1.0     0.854560     0.836493     0.707427  Biso 1.000000     H
    H   1.0     0.745379     0.728609     0.717361  Biso 1.000000     H
    H   1.0     0.550352     0.904060     0.612427  Biso 1.000000     H
    H   1.0     0.465273     0.702670     0.647738  Biso 1.000000     H
    H   1.0     0.471096     0.799767     0.601958  Biso 1.000000     H
    H   1.0     0.415869     0.912515     0.666079  Biso 1.000000     H
    H   1.0     0.382390     0.975041     0.784598  Biso 1.000000     H
    H   1.0     0.488783     0.765214     0.924783  Biso 1.000000     H
    H   1.0     0.524031     0.704302     0.806542  Biso 1.000000     H
    H   1.0     0.302426     0.980267     0.869957  Biso 1.000000     H
    H   1.0     0.270321     0.043945    -0.013375  Biso 1.000000     H
    H   1.0     0.480470     0.915733     0.138541  Biso 1.000000     H
    H   1.0     0.516440     0.855398     0.020694  Biso 1.000000     H
    H   1.0     0.331683     0.086436     0.131800  Biso 1.000000     H
    H   1.0     0.407350     0.000000     0.194649  Biso 1.000000     H
    H   1.0     0.189133     0.054436     0.097159  Biso 1.000000     H
    H   1.0     0.098004     0.876449     0.241384  Biso 1.000000     H
    H   1.0     0.249887     0.832721     0.294165  Biso 1.000000     H
    H   1.0     0.366438     0.904254     0.248069  Biso 1.000000     H
    H   1.0     0.914353     0.156172     0.564378  Biso 1.000000     H
    H   1.0     0.000000     0.281238     0.579239  Biso 1.000000     H
    H   1.0     0.783192     0.432896     0.548376  Biso 1.000000     H
    H   1.0     0.692464     0.307694     0.538425  Biso 1.000000     H
    H   1.0     0.667705     0.302687     0.101555  Biso 1.000000     H
    H   1.0     0.720169     0.293187     0.869711  Biso 1.000000     H
    H   1.0     0.827518     0.182155     0.917070  Biso 1.000000     H
    H   1.0     0.776601     0.193552     0.148977  Biso 1.000000     H
    H   1.0     0.900012     0.913799     0.400619  Biso 1.000000     H
    H   1.0     0.096941     0.094911     0.452040  Biso 1.000000     H
    H   1.0     0.695134     0.469206     0.355939  Biso 1.000000     H
    H   1.0     0.644905     0.336634     0.291746  Biso 1.000000     H
    H   1.0     0.753946     0.228406     0.282630  Biso 1.000000     H
    H   1.0     0.949213     0.404043     0.385490  Biso 1.000000     H
    H   1.0     0.034115     0.202201     0.351836  Biso 1.000000     H
    H   1.0     0.028399     0.299211     0.397450  Biso 1.000000     H
    H   1.0     0.083793     0.411978     0.333069  Biso 1.000000     H
    H   1.0     0.117308     0.474672     0.214432  Biso 1.000000     H
    H   1.0     0.010516     0.265283     0.074684  Biso 1.000000     H
    H   1.0     0.975166     0.204230     0.193037  Biso 1.000000     H
    H   1.0     0.196807     0.480543     0.128941  Biso 1.000000     H
    H   1.0     0.229132     0.544067     0.000000  Biso 1.000000     H
    H   1.0     0.019785     0.415050     0.860492  Biso 1.000000     H
    H   1.0    -0.016472     0.354989     0.978532  Biso 1.000000     H
    H   1.0     0.168190     0.585987     0.866459  Biso 1.000000     H
    H   1.0     0.092631     0.521791     0.803954  Biso 1.000000     H
    H   1.0     0.310836     0.554045     0.901412  Biso 1.000000     H
    H   1.0     0.402205     0.376547     0.757585  Biso 1.000000     H
    H   1.0     0.250416     0.332604     0.705028  Biso 1.000000     H
    H   1.0     0.133748     0.403705     0.751106  Biso 1.000000     H
    H   1.0     0.585041     0.655892     0.435118  Biso 1.000000     H
    H   1.0     0.492661     0.780891     0.420265  Biso 1.000000     H
    H   1.0     0.715595     0.932663     0.447794  Biso 1.000000     H
    H   1.0     0.806299     0.807553     0.457201  Biso 1.000000     H
    H   1.0     0.831825     0.802860     0.897076  Biso 1.000000     H
    H   1.0     0.779701     0.792763     0.129079  Biso 1.000000     H
    H   1.0     0.672362     0.681884     0.082044  Biso 1.000000     H
    H   1.0     0.723065     0.693692     0.850045  Biso 1.000000     H
    H   1.0     0.600186     0.415041     0.598032  Biso 1.000000     H
    H   1.0     0.402264     0.595297     0.545889  Biso 1.000000     H
    H   1.0     0.195349     0.030690     0.357359  Biso 1.000000     H
    H   1.0     0.144990     0.162773     0.291468  Biso 1.000000     H
    H   1.0     0.253914     0.270998     0.281670  Biso 1.000000     H
    H   1.0     0.449337     0.096197     0.387298  Biso 1.000000     H
    H   1.0     0.534025     0.297653     0.351613  Biso 1.000000     H
    H   1.0     0.528455     0.200724     0.397755  Biso 1.000000     H
    H   1.0     0.583909     0.087929     0.333950  Biso 1.000000     H
    H   1.0     0.617459     0.025110     0.215607  Biso 1.000000     H
    H   1.0     0.509988     0.234131     0.074692  Biso 1.000000     H
    H   1.0     0.474672     0.295330     0.192750  Biso 1.000000     H
    H   1.0     0.697118     0.019610     0.130108  Biso 1.000000     H
    H   1.0     0.729458     0.955872     0.000000  Biso 1.000000     H
    H   1.0     0.519178     0.083738     0.861397  Biso 1.000000     H
    H   1.0     0.482965     0.144030     0.979120  Biso 1.000000     H
    H   1.0     0.668980     0.913566     0.868468  Biso 1.000000     H
    H   1.0     0.592310    -0.023278     0.805593  Biso 1.000000     H
    H   1.0     0.811136     0.947128     0.902497  Biso 1.000000     H
    H   1.0     0.899398     0.125322     0.756593  Biso 1.000000     H
    H   1.0     0.746977     0.167520     0.704242  Biso 1.000000     H
    H   1.0     0.631582     0.095184     0.751375  Biso 1.000000     H
    H   1.0     0.085127     0.843811     0.434203  Biso 1.000000     H
    H   1.0    -0.007127     0.718711     0.418504  Biso 1.000000     H
    H   1.0     0.216307     0.567169     0.448726  Biso 1.000000     H
    H   1.0     0.306996     0.692442     0.459245  Biso 1.000000     H
    H   1.0     0.330381     0.697100     0.896539  Biso 1.000000     H
    H   1.0     0.280018     0.707624     0.129179  Biso 1.000000     H
    H   1.0     0.172481     0.818484     0.082122  Biso 1.000000     H
    H   1.0     0.221048     0.805912     0.849356  Biso 1.000000     H
    H   1.0     0.099384     0.085495     0.597672  Biso 1.000000     H
    H   1.0     0.902464     0.904328     0.546277  Biso 1.000000     H
    H   1.0     0.304410     0.530488     0.641282  Biso 1.000000     H
    H   1.0     0.354917     0.662345     0.707026  Biso 1.000000     H
    H   1.0     0.246080     0.770369     0.717255  Biso 1.000000     H
    H   1.0     0.050489     0.595865     0.612178  Biso 1.000000     H
    H   1.0     0.966000     0.797367     0.647614  Biso 1.000000     H
    H   1.0     0.971612     0.700522     0.601673  Biso 1.000000     H
    H   1.0     0.915918     0.587400     0.665832  Biso 1.000000     H
    H   1.0     0.882282     0.524559     0.784397  Biso 1.000000     H
    H   1.0     0.989146     0.733727     0.924419  Biso 1.000000     H
    H   1.0     0.024572     0.794954     0.806197  Biso 1.000000     H
    H   1.0     0.802577     0.518880     0.870136  Biso 1.000000     H
    H   1.0     0.770219     0.455607    -0.012757  Biso 1.000000     H
    H   1.0     0.980166     0.584069     0.138451  Biso 1.000000     H
    H   1.0     0.000000     0.643874     0.020302  Biso 1.000000     H
    H   1.0     0.831288     0.413726     0.132894  Biso 1.000000     H
    H   1.0     0.906876     0.478044     0.195239  Biso 1.000000     H
    H   1.0     0.688759     0.445515     0.097959  Biso 1.000000     H
    H   1.0     0.597274     0.624321     0.240418  Biso 1.000000     H
    H   1.0     0.749065     0.668521     0.292639  Biso 1.000000     H
    H   1.0     0.865755     0.596887     0.247092  Biso 1.000000     H
    H   1.0     0.414931     0.344044     0.562772  Biso 1.000000     H
    H   1.0     0.507325     0.219032     0.578469  Biso 1.000000     H
    H   1.0     0.284332     0.067355     0.551126  Biso 1.000000     H
    H   1.0     0.193579     0.192509     0.540757  Biso 1.000000     H
    H   1.0     0.167173     0.197549     0.100374  Biso 1.000000     H
    H   1.0     0.222051     0.205241     0.869425  Biso 1.000000     H
    H   1.0     0.328969     0.316562     0.916358  Biso 1.000000     H
    H   1.0     0.275916     0.306697     0.147529  Biso 1.000000     H
    H   1.0     0.398670     0.584861     0.400100  Biso 1.000000     H
    H   1.0     0.596887     0.404944     0.452280  Biso 1.000000     H
    C   1.0     0.759591     0.922470     0.650936  Biso 1.000000     C
    C   1.0     0.786560     0.847448     0.686147  Biso 1.000000     C
    C   1.0     0.726598     0.788843     0.692426  Biso 1.000000     C
    C   1.0     0.639377     0.807009     0.665279  Biso 1.000000     C
    C   1.0     0.616375     0.884664     0.633462  Biso 1.000000     C
    C   1.0     0.493534     0.763895     0.656756  Biso 1.000000     C
    C   1.0     0.472938     0.804223     0.728136  Biso 1.000000     C
    C   1.0     0.432298     0.880249     0.722968  Biso 1.000000     C
    C   1.0     0.412937     0.915271     0.790095  Biso 1.000000     C
    C   1.0     0.433464     0.875677     0.864534  Biso 1.000000     C
    C   1.0     0.474179     0.799101     0.868870  Biso 1.000000     C
    C   1.0     0.493486     0.764045     0.802035  Biso 1.000000     C
    C   1.0     0.412438     0.912646     0.935608  Biso 1.000000     C
    C   1.0     0.343228     0.966616     0.928355  Biso 1.000000     C
    C   1.0     0.323909     0.000000    -0.004985  Biso 1.000000     C
    C   1.0     0.372192     0.983692     0.071688  Biso 1.000000     C
    C   1.0     0.440845     0.929610     0.079548  Biso 1.000000     C
    C   1.0     0.460893     0.895048     0.012769  Biso 1.000000     C
    C   1.0     0.351801     0.000000     0.143847  Biso 1.000000     C
    C   1.0     0.199855     0.000000     0.140077  Biso 1.000000     C
    C   1.0     0.130079     0.967809     0.162462  Biso 1.000000     C
    C   1.0     0.149551     0.905274     0.220467  Biso 1.000000     C
    C   1.0     0.233760     0.881234     0.250068  Biso 1.000000     C
    C   1.0     0.299600     0.919153     0.224888  Biso 1.000000     C
    C   1.0     0.744700     0.149891     0.549131  Biso 1.000000     C
    C   1.0     0.798101     0.224791     0.551194  Biso 1.000000     C
    C   1.0     0.886654     0.217002     0.561858  Biso 1.000000     C
    C   1.0     0.937647     0.286320     0.569937  Biso 1.000000     C
    C   1.0     0.900770     0.364450     0.565505  Biso 1.000000     C
    C   1.0     0.957760     0.437493     0.574082  Biso 1.000000     C
    C   1.0     0.811961     0.372341     0.552665  Biso 1.000000     C
    C   1.0     0.761222     0.302803     0.546495  Biso 1.000000     C
    C   1.0     0.623253     0.371344     0.953172  Biso 1.000000     C
    C   1.0     0.703934     0.277178     0.061651  Biso 1.000000     C
    C   1.0     0.687553     0.304892     0.982620  Biso 1.000000     C
    C   1.0     0.733010     0.270812     0.930743  Biso 1.000000     C
    C   1.0     0.792523     0.209449     0.957021  Biso 1.000000     C
    C   1.0     0.808168     0.181066     0.035721  Biso 1.000000     C
    C   1.0     0.764047     0.216085     0.088056  Biso 1.000000     C
    C   1.0     0.869328     0.111760     0.061860  Biso 1.000000     C
    C   1.0     0.996730     0.012327     0.331039  Biso 1.000000     C
    C   1.0     0.998147     0.005187     0.417760  Biso 1.000000     C
    C   1.0     0.943489     0.951013     0.444376  Biso 1.000000     C
    C   1.0     0.054347     0.053627     0.473341  Biso 1.000000     C
    C   1.0     0.739990     0.422724     0.347195  Biso 1.000000     C
    C   1.0     0.712925     0.347542     0.312769  Biso 1.000000     C
    C   1.0     0.772816     0.288749     0.306954  Biso 1.000000     C
    C   1.0     0.860066     0.306854     0.333807  Biso 1.000000     C
    C   1.0     0.883167     0.384686     0.364733  Biso 1.000000     C
    C   1.0     0.005878     0.263461     0.342735  Biso 1.000000     C
    C   1.0     0.026449     0.303918     0.271237  Biso 1.000000     C
    C   1.0     0.067244     0.379852     0.276243  Biso 1.000000     C
    C   1.0     0.086646     0.414974     0.209036  Biso 1.000000     C
    C   1.0     0.066039     0.375568     0.134672  Biso 1.000000     C
    C   1.0     0.025184     0.299066     0.130511  Biso 1.000000     C
    C   1.0     0.005809     0.263923     0.197420  Biso 1.000000     C
    C   1.0     0.087150     0.412582     0.063493  Biso 1.000000     C
    C   1.0     0.156215     0.466704     0.070560  Biso 1.000000     C
    C   1.0     0.175692     0.501832     0.000000  Biso 1.000000     C
    C   1.0     0.127728     0.483340     0.927116  Biso 1.000000     C
    C   1.0     0.059192     0.429149     0.919459  Biso 1.000000     C
    C   1.0     0.038968     0.394753     0.986363  Biso 1.000000     C
    C   1.0     0.148172     0.522309     0.854760  Biso 1.000000     C
    C   1.0     0.300127     0.504550     0.858614  Biso 1.000000     C
    C   1.0     0.370015     0.467685     0.836325  Biso 1.000000     C
    C   1.0     0.350627     0.405231     0.778478  Biso 1.000000     C
    C   1.0     0.266467     0.381046     0.749003  Biso 1.000000     C
    C   1.0     0.200554     0.418754     0.774126  Biso 1.000000     C
    C   1.0     0.754313     0.649632     0.447978  Biso 1.000000     C
    C   1.0     0.700967     0.724555     0.446224  Biso 1.000000     C
    C   1.0     0.612576     0.716740     0.436801  Biso 1.000000     C
    C   1.0     0.561501     0.786030     0.428757  Biso 1.000000     C
    C   1.0     0.598169     0.864198     0.432209  Biso 1.000000     C
    C   1.0     0.541058     0.937196     0.423563  Biso 1.000000     C
    C   1.0     0.686892     0.872111     0.444118  Biso 1.000000     C
    C   1.0     0.737661     0.802603     0.450033  Biso 1.000000     C
    C   1.0     0.876560     0.871179     0.045320  Biso 1.000000     C
    C   1.0     0.795739     0.777188     0.937118  Biso 1.000000     C
    C   1.0     0.812241     0.804761     0.016094  Biso 1.000000     C
    C   1.0     0.766840     0.770541     0.068086  Biso 1.000000     C
    C   1.0     0.707313     0.709230     0.041983  Biso 1.000000     C
    C   1.0     0.691586     0.680938     0.963363  Biso 1.000000     C
    C   1.0     0.735654     0.716091     0.910917  Biso 1.000000     C
    C   1.0     0.630309     0.611670     0.937471  Biso 1.000000     C
    C   1.0     0.503397     0.513066     0.667291  Biso 1.000000     C
    C   1.0     0.501513     0.505976     0.580527  Biso 1.000000     C
    C   1.0     0.556261     0.451876     0.554107  Biso 1.000000     C
    C   1.0     0.444826     0.553987     0.524714  Biso 1.000000     C
    C   1.0     0.240144     0.077180     0.348379  Biso 1.000000     C
    C   1.0     0.213009     0.152076     0.312974  Biso 1.000000     C
    C   1.0     0.272833     0.210859     0.306783  Biso 1.000000     C
    C   1.0     0.360081     0.192985     0.334243  Biso 1.000000     C
    C   1.0     0.383264     0.115394     0.366134  Biso 1.000000     C
    C   1.0     0.505819     0.236390     0.342854  Biso 1.000000     C
    C   1.0     0.526339     0.195851     0.271537  Biso 1.000000     C
    C   1.0     0.567281     0.119964     0.276942  Biso 1.000000     C
    C   1.0     0.586682     0.084775     0.209905  Biso 1.000000     C
    C   1.0     0.565906     0.124067     0.135319  Biso 1.000000     C
    C   1.0     0.524843     0.200487     0.130741  Biso 1.000000     C
    C   1.0     0.505479     0.235703     0.197478  Biso 1.000000     C
    C   1.0     0.587029     0.086999     0.064328  Biso 1.000000     C
    C   1.0     0.656331     0.033125     0.071672  Biso 1.000000     C
    C   1.0     0.675792    -0.002134     0.000000  Biso 1.000000     C
    C   1.0     0.627543     0.015976     0.928354  Biso 1.000000     C
    C   1.0     0.558782     0.069941     0.920416  Biso 1.000000     C
    C   1.0     0.538597     0.104483     0.987130  Biso 1.000000     C
    C   1.0     0.648048    -0.023036     0.856212  Biso 1.000000     C
    C   1.0     0.799587    -0.003534     0.859328  Biso 1.000000     C
    C   1.0     0.868781     0.034130     0.836467  Biso 1.000000     C
    C   1.0     0.848353     0.096168     0.778010  Biso 1.000000     C
    C   1.0     0.763829     0.119338     0.748617  Biso 1.000000     C
    C   1.0     0.698607     0.080952     0.774368  Biso 1.000000     C
    C   1.0     0.254788     0.850191     0.449484  Biso 1.000000     C
    C   1.0     0.201352     0.775253     0.446946  Biso 1.000000     C
    C   1.0     0.112811     0.783000     0.436350  Biso 1.000000     C
    C   1.0     0.061811     0.713665     0.427828  Biso 1.000000     C
    C   1.0     0.098700     0.635563     0.431863  Biso 1.000000     C
    C   1.0     0.041696     0.562527     0.422862  Biso 1.000000     C
    C   1.0     0.187514     0.627702     0.444718  Biso 1.000000     C
    C   1.0     0.238240     0.697269     0.451222  Biso 1.000000     C
    C   1.0     0.376091     0.628965     0.045173  Biso 1.000000     C
    C   1.0     0.294543     0.722766     0.936697  Biso 1.000000     C
    C   1.0     0.311642     0.695360     0.015867  Biso 1.000000     C
    C   1.0     0.266686     0.729711     0.068030  Biso 1.000000     C
    C   1.0     0.207024     0.790993     0.041901  Biso 1.000000     C
    C   1.0     0.190577     0.819009     0.963031  Biso 1.000000     C
    C   1.0     0.234191     0.783719     0.910423  Biso 1.000000     C
    C   1.0     0.129023     0.888142     0.937052  Biso 1.000000     C
    C   1.0     0.002693     0.987502     0.667301  Biso 1.000000     C
    C   1.0     0.001214     0.994139     0.580559  Biso 1.000000     C
    C   1.0     0.055913     0.048269     0.553930  Biso 1.000000     C
    C   1.0     0.945066     0.945628     0.524998  Biso 1.000000     C
    C   1.0     0.259679     0.576893     0.650468  Biso 1.000000     C
    C   1.0     0.286882     0.651657     0.685781  Biso 1.000000     C
    C   1.0     0.227094     0.710325     0.692209  Biso 1.000000     C
    C   1.0     0.139810     0.692500     0.665070  Biso 1.000000     C
    C   1.0     0.116568     0.615037     0.633197  Biso 1.000000     C
    C   1.0     0.994082     0.736031     0.656547  Biso 1.000000     C
    C   1.0     0.973280     0.695375     0.727842  Biso 1.000000     C
    C   1.0     0.932460     0.619442     0.722709  Biso 1.000000     C
    C   1.0     0.912989     0.584240     0.789866  Biso 1.000000     C
    C   1.0     0.933593     0.623558     0.864275  Biso 1.000000     C
    C   1.0     0.974469     0.700046     0.868537  Biso 1.000000     C
    C   1.0     0.993882     0.735280     0.801701  Biso 1.000000     C
    C   1.0     0.912504     0.586560     0.935467  Biso 1.000000     C
    C   1.0     0.843297     0.532629     0.928482  Biso 1.000000     C
    C   1.0     0.823819     0.497639    -0.004655  Biso 1.000000     C
    C   1.0     0.871947     0.516070     0.071939  Biso 1.000000     C
    C   1.0     0.940654     0.570032     0.079514  Biso 1.000000     C
    C   1.0     0.960865     0.604296     0.012554  Biso 1.000000     C
    C   1.0     0.851396     0.477406     0.144377  Biso 1.000000     C
    C   1.0     0.699454     0.495329     0.140411  Biso 1.000000     C
    C   1.0     0.629586     0.532517     0.162405  Biso 1.000000     C
    C   1.0     0.648888     0.595385     0.219789  Biso 1.000000     C
    C   1.0     0.733033     0.619717     0.249061  Biso 1.000000     C
    C   1.0     0.798960     0.581712     0.224214  Biso 1.000000     C
    C   1.0     0.245543     0.350419     0.549196  Biso 1.000000     C
    C   1.0     0.298949     0.275448     0.551579  Biso 1.000000     C
    C   1.0     0.387377     0.283224     0.561280  Biso 1.000000     C
    C   1.0     0.438467     0.213923     0.569830  Biso 1.000000     C
    C   1.0     0.401782     0.135781     0.566639  Biso 1.000000     C
    C   1.0     0.458900     0.062795     0.575617  Biso 1.000000     C
    C   1.0     0.313039     0.127892     0.554561  Biso 1.000000     C
    C   1.0     0.262245     0.197423     0.548109  Biso 1.000000     C
    C   1.0     0.123938     0.127931     0.952876  Biso 1.000000     C
    C   1.0     0.203881     0.222704     0.060616  Biso 1.000000     C
    C   1.0     0.188229     0.194421     0.981929  Biso 1.000000     C
    C   1.0     0.234290     0.228033     0.930193  Biso 1.000000     C
    C   1.0     0.293613     0.289539     0.956257  Biso 1.000000     C
    C   1.0     0.308570     0.318439     0.034632  Biso 1.000000     C
    C   1.0     0.263895     0.283821     0.086852  Biso 1.000000     C
    C   1.0     0.369581     0.387830     0.060602  Biso 1.000000     C
    C   1.0     0.495623     0.486477     0.330875  Biso 1.000000     C
    C   1.0     0.497363     0.493942     0.417617  Biso 1.000000     C
    C   1.0     0.442644     0.548075     0.444032  Biso 1.000000     C
    C   1.0     0.554197     0.446095     0.473463  Biso 1.000000     C
    N   1.0     0.676068     0.940047     0.625413  Biso 1.000000     N
    N   1.0     0.280928     0.980763     0.170891  Biso 1.000000     N
    N   1.0     0.823540     0.440281     0.372302  Biso 1.000000     N
    N   1.0     0.219115     0.480321     0.827927  Biso 1.000000     N
    N   1.0     0.323704     0.059836     0.374092  Biso 1.000000     N
    N   1.0     0.718203     0.019685     0.828662  Biso 1.000000     N
    N   1.0     0.176103     0.559575     0.625057  Biso 1.000000     N
    N   1.0     0.780447     0.519696     0.170915  Biso 1.000000     N
    O   1.0     0.777542     0.079728     0.553218  Biso 1.000000     O
    O   1.0     0.664463     0.159730     0.547214  Biso 1.000000     O
    O   1.0     0.035472     0.427253     0.610417  Biso 1.000000     O
    O   1.0     0.928050     0.507097     0.546447  Biso 1.000000     O
    O   1.0     0.902731     0.080119     0.009802  Biso 1.000000     O
    O   1.0     0.882058     0.089429     0.134851  Biso 1.000000     O
    O   1.0     0.618368     0.396208     0.882177  Biso 1.000000     O
    O   1.0     0.580983     0.397987     0.001065  Biso 1.000000     O
    O   1.0     0.037965     0.067256     0.306274  Biso 1.000000     O
    O   1.0     0.950526     0.958712     0.284260  Biso 1.000000     O
    O   1.0     0.052363     0.992689     0.128990  Biso 1.000000     O
    O   1.0     0.584322     0.746069     0.670302  Biso 1.000000     O
    O   1.0     0.722184     0.579441     0.446754  Biso 1.000000     O
    O   1.0     0.833778     0.659694     0.446713  Biso 1.000000     O
    O   1.0     0.463302     0.927045     0.387423  Biso 1.000000     O
    O   1.0     0.570675     0.006803     0.450945  Biso 1.000000     O
    O   1.0     0.596844     0.580293     0.989787  Biso 1.000000     O
    O   1.0     0.617605     0.589312     0.864610  Biso 1.000000     O
    O   1.0     0.881587     0.895890     0.116302  Biso 1.000000     O
    O   1.0     0.918733     0.897999     0.997293  Biso 1.000000     O
    O   1.0     0.462684     0.568068     0.692446  Biso 1.000000     O
    O   1.0     0.549499     0.459066     0.713910  Biso 1.000000     O
    O   1.0     0.447653     0.492685     0.869701  Biso 1.000000     O
    O   1.0     0.915073     0.245731     0.329414  Biso 1.000000     O
    O   1.0     0.222299     0.920374     0.446943  Biso 1.000000     O
    O   1.0     0.334750     0.840287     0.450227  Biso 1.000000     O
    O   1.0     0.964082     0.572777     0.386208  Biso 1.000000     O
    O   1.0     0.071210     0.492867     0.450494  Biso 1.000000     O
    O   1.0     0.096884     0.920256     0.989811  Biso 1.000000     O
    O   1.0     0.114711     0.909682     0.863787  Biso 1.000000     O
    O   1.0     0.381309     0.604190     0.116280  Biso 1.000000     O
    O   1.0     0.418135     0.602166     0.997151  Biso 1.000000     O
    O   1.0     0.961794     0.932699     0.692746  Biso 1.000000     O
    O   1.0     0.048719     0.041514     0.713676  Biso 1.000000     O
    O   1.0     0.946842     0.010282     0.869957  Biso 1.000000     O
    O   1.0     0.415020     0.254110     0.329449  Biso 1.000000     O
    O   1.0     0.277672     0.420590     0.550170  Biso 1.000000     O
    O   1.0     0.165993     0.340412     0.550170  Biso 1.000000     O
    O   1.0     0.536636     0.073035     0.611753  Biso 1.000000     O
    O   1.0     0.429336     0.993068     0.548491  Biso 1.000000     O
    O   1.0     0.403087     0.419456     0.008446  Biso 1.000000     O
    O   1.0     0.382067     0.410178     0.133446  Biso 1.000000     O
    O   1.0     0.121094     0.100888     0.883074  Biso 1.000000     O
    O   1.0     0.079722     0.103418     0.000094  Biso 1.000000     O
    O   1.0     0.538250     0.432615     0.306505  Biso 1.000000     O
    O   1.0     0.447765     0.538874     0.283680  Biso 1.000000     O
    O   1.0     0.551973     0.507395     0.129077  Biso 1.000000     O
    O   1.0     0.084971     0.753565     0.670206  Biso 1.000000     O
   Zn   1.0     0.635250     0.041471     0.559930  Biso 1.000000    Zn
   Zn   1.0     0.948584     0.989503     0.174342  Biso 1.000000    Zn
   Zn   1.0     0.864581     0.541710     0.436917  Biso 1.000000    Zn
   Zn   1.0     0.550964     0.489698     0.823599  Biso 1.000000    Zn
   Zn   1.0     0.364810     0.958501     0.439641  Biso 1.000000    Zn
   Zn   1.0     0.049369     0.010424     0.823303  Biso 1.000000    Zn
   Zn   1.0     0.135128     0.458365     0.559885  Biso 1.000000    Zn
   Zn   1.0     0.448061     0.510190     0.173989  Biso 1.000000    Zn
   Zn   1.0     0.000012     0.000280    -0.000325  Biso 1.000000    Zn
   Zn   1.0     0.499959     0.500052    -0.000425  Biso 1.000000    Zn
