#======================================================================

# CRYSTAL DATA

#----------------------------------------------------------------------

data_VESTA_phase_1


_pd_phase_name                         MOF
_cell_length_a                         27.92000
_cell_length_b                         14.17900
_cell_length_c                         14.88000
_cell_angle_alpha                      65.27900
_cell_angle_beta                       62.00700
_cell_angle_gamma                      60.49300
_symmetry_space_group_name_H-M         "P 1"
_symmetry_Int_Tables_number            1

loop_
_symmetry_equiv_pos_as_xyz
   "x, y, z"

loop_
   _atom_site_label
   _atom_site_occupancy
   _atom_site_fract_x
   _atom_site_fract_y
   _atom_site_fract_z
   _atom_site_adp_type
   _atom_site_B_iso_or_equiv
   _atom_site_type_symbol
    H   1.0     0.359489     0.198087     0.243681  Biso 1.000000     H
    H   1.0     0.859494     0.198084     0.243689  Biso 1.000000     H
    H   1.0     0.410651     0.331441     0.149957  Biso 1.000000     H
    H   1.0     0.910656     0.331438     0.149963  Biso 1.000000     H
    H   1.0     0.063065     0.080909     0.997622  Biso 1.000000     H
    H   1.0     0.563068     0.080908     0.997624  Biso 1.000000     H
    H   1.0     0.011368     0.946293     0.097064  Biso 1.000000     H
    H   1.0     0.511370     0.946292     0.097065  Biso 1.000000     H
    H   1.0     0.341011     0.861524     0.040428  Biso 1.000000     H
    H   1.0     0.841015     0.861532     0.040425  Biso 1.000000     H
    H   1.0     0.167396     0.103768     0.132257  Biso 1.000000     H
    H   1.0     0.667400     0.103772     0.132255  Biso 1.000000     H
    H   1.0     0.080462     0.301874     0.256273  Biso 1.000000     H
    H   1.0     0.580464     0.301873     0.256275  Biso 1.000000     H
    H   1.0     0.151387     0.168509     0.350072  Biso 1.000000     H
    H   1.0     0.651390     0.168509     0.350074  Biso 1.000000     H
    H   1.0     0.102241     0.419030     0.502446  Biso 1.000000     H
    H   1.0     0.602244     0.419033     0.502444  Biso 1.000000     H
    H   1.0     0.033036     0.553666     0.402863  Biso 1.000000     H
    H   1.0     0.533039     0.553667     0.402861  Biso 1.000000     H
    H   1.0     0.292042     0.638325     0.459589  Biso 1.000000     H
    H   1.0     0.792046     0.638322     0.459593  Biso 1.000000     H
    H   1.0     0.285412     0.396399     0.367579  Biso 1.000000     H
    H   1.0     0.785415     0.396398     0.367582  Biso 1.000000     H
    H   1.0     0.140591     0.801873     0.756250  Biso 1.000000     H
    H   1.0     0.640598     0.801867     0.756260  Biso 1.000000     H
    H   1.0     0.089426     0.668526     0.849977  Biso 1.000000     H
    H   1.0     0.589432     0.668520     0.849986  Biso 1.000000     H
    H   1.0     0.437023     0.919056     0.002327  Biso 1.000000     H
    H   1.0     0.937024     0.919055     0.002331  Biso 1.000000     H
    H   1.0     0.488726     0.053663     0.902889  Biso 1.000000     H
    H   1.0     0.988727     0.053663     0.902892  Biso 1.000000     H
    H   1.0     0.159069     0.138426     0.959516  Biso 1.000000     H
    H   1.0     0.659073     0.138431     0.959514  Biso 1.000000     H
    H   1.0     0.332683     0.896181     0.867687  Biso 1.000000     H
    H   1.0     0.832688     0.896191     0.867683  Biso 1.000000     H
    H   1.0     0.419600     0.698073     0.743702  Biso 1.000000     H
    H   1.0     0.919602     0.698071     0.743705  Biso 1.000000     H
    H   1.0     0.348677     0.831437     0.649900  Biso 1.000000     H
    H   1.0     0.848679     0.831437     0.649901  Biso 1.000000     H
    H   1.0     0.397835     0.580920     0.497509  Biso 1.000000     H
    H   1.0     0.897837     0.580922     0.497509  Biso 1.000000     H
    H   1.0     0.467035     0.446282     0.597104  Biso 1.000000     H
    H   1.0     0.967036     0.446283     0.597104  Biso 1.000000     H
    H   1.0     0.208034     0.361657     0.540340  Biso 1.000000     H
    H   1.0     0.708037     0.361656     0.540343  Biso 1.000000     H
    H   1.0     0.214664     0.603583     0.632350  Biso 1.000000     H
    H   1.0     0.714669     0.603579     0.632354  Biso 1.000000     H
    C   1.0     0.398865     0.988065     0.229155  Biso 1.000000     C
    C   1.0     0.898868     0.988065     0.229158  Biso 1.000000     C
    C   1.0     0.432198     0.064835     0.175238  Biso 1.000000     C
    C   1.0     0.932202     0.064834     0.175242  Biso 1.000000     C
    C   1.0     0.404278     0.173222     0.190486  Biso 1.000000     C
    C   1.0     0.904282     0.173220     0.190492  Biso 1.000000     C
    C   1.0     0.433126     0.247566     0.137521  Biso 1.000000     C
    C   1.0     0.933130     0.247564     0.137526  Biso 1.000000     C
    C   1.0     0.490337     0.215046     0.066794  Biso 1.000000     C
    C   1.0     0.990340     0.215045     0.066796  Biso 1.000000     C
    C   1.0     0.019547     0.296994     0.000000  Biso 1.000000     C
    C   1.0     0.519549     0.296995     0.000000  Biso 1.000000     C
    C   1.0     0.018733     0.106008     0.052443  Biso 1.000000     C
    C   1.0     0.518735     0.106008     0.052443  Biso 1.000000     C
    C   1.0    -0.010005     0.031069     0.107341  Biso 1.000000     C
    C   1.0     0.489996     0.031069     0.107340  Biso 1.000000     C
    C   1.0     0.258777     0.963328     0.199225  Biso 1.000000     C
    C   1.0     0.758781     0.963333     0.199223  Biso 1.000000     C
    C   1.0     0.254480     0.980717     0.096645  Biso 1.000000     C
    C   1.0     0.754485     0.980724     0.096642  Biso 1.000000     C
    C   1.0     0.301309     0.921851     0.022303  Biso 1.000000     C
    C   1.0     0.801313     0.921859     0.022300  Biso 1.000000     C
    C   1.0     0.203256     0.058887     0.073581  Biso 1.000000     C
    C   1.0     0.703260     0.058893     0.073579  Biso 1.000000     C
    C   1.0     0.007535     0.511931     0.270744  Biso 1.000000     C
    C   1.0     0.507537     0.511929     0.270746  Biso 1.000000     C
    C   1.0     0.052266     0.435153     0.324695  Biso 1.000000     C
    C   1.0     0.552268     0.435153     0.324696  Biso 1.000000     C
    C   1.0     0.086179     0.326747     0.309488  Biso 1.000000     C
    C   1.0     0.586181     0.326746     0.309490  Biso 1.000000     C
    C   1.0     0.125692     0.252386     0.362507  Biso 1.000000     C
    C   1.0     0.625694     0.252386     0.362509  Biso 1.000000     C
    C   1.0     0.131233     0.284890     0.433270  Biso 1.000000     C
    C   1.0     0.631235     0.284891     0.433270  Biso 1.000000     C
    C   1.0     0.171154     0.202953     0.493831  Biso 1.000000     C
    C   1.0     0.671156     0.202955     0.493831  Biso 1.000000     C
    C   1.0     0.097908     0.393938     0.447599  Biso 1.000000     C
    C   1.0     0.597910     0.393940     0.447598  Biso 1.000000     C
    C   1.0     0.059186     0.468905     0.392623  Biso 1.000000     C
    C   1.0     0.559188     0.468906     0.392623  Biso 1.000000     C
    C   1.0     0.340096     0.536702     0.300677  Biso 1.000000     C
    C   1.0     0.840099     0.536700     0.300680  Biso 1.000000     C
    C   1.0     0.293197     0.519279     0.403280  Biso 1.000000     C
    C   1.0     0.793200     0.519277     0.403284  Biso 1.000000     C
    C   1.0     0.273431     0.578042     0.477679  Biso 1.000000     C
    C   1.0     0.773435     0.578039     0.477683  Biso 1.000000     C
    C   1.0     0.269494     0.441199     0.426302  Biso 1.000000     C
    C   1.0     0.769498     0.441198     0.426306  Biso 1.000000     C
    C   1.0     0.101230     0.011877     0.770792  Biso 1.000000     C
    C   1.0     0.601235     0.011874     0.770794  Biso 1.000000     C
    C   1.0     0.067890     0.935120     0.824707  Biso 1.000000     C
    C   1.0     0.567894     0.935117     0.824710  Biso 1.000000     C
    C   1.0     0.095805     0.826737     0.809451  Biso 1.000000     C
    C   1.0     0.595810     0.826733     0.809458  Biso 1.000000     C
    C   1.0     0.066954     0.752398     0.862417  Biso 1.000000     C
    C   1.0     0.566959     0.752394     0.862423  Biso 1.000000     C
    C   1.0     0.009745     0.784920     0.933150  Biso 1.000000     C
    C   1.0     0.509750     0.784918     0.933152  Biso 1.000000     C
    C   1.0     0.480537     0.702971    -0.006287  Biso 1.000000     C
    C   1.0     0.980537     0.702972    -0.006288  Biso 1.000000     C
    C   1.0     0.481355     0.893954     0.947507  Biso 1.000000     C
    C   1.0     0.981356     0.893955     0.947508  Biso 1.000000     C
    C   1.0     0.510097     0.968888     0.892611  Biso 1.000000     C
    C   1.0     0.000000     0.968889     0.892611  Biso 1.000000     C
    C   1.0     0.241305     0.036628     0.800714  Biso 1.000000     C
    C   1.0     0.741309     0.036635     0.800710  Biso 1.000000     C
    C   1.0     0.245600     0.019234     0.903298  Biso 1.000000     C
    C   1.0     0.745604     0.019241     0.903294  Biso 1.000000     C
    C   1.0     0.198771     0.078099     0.977640  Biso 1.000000     C
    C   1.0     0.698775     0.078105     0.977637  Biso 1.000000     C
    C   1.0     0.296823     0.941062     0.926363  Biso 1.000000     C
    C   1.0     0.796828     0.941071     0.926359  Biso 1.000000     C
    C   1.0     0.492538     0.488029     0.729213  Biso 1.000000     C
    C   1.0     0.992539     0.488027     0.729215  Biso 1.000000     C
    C   1.0     0.447801     0.564796     0.675274  Biso 1.000000     C
    C   1.0     0.947802     0.564796     0.675276  Biso 1.000000     C
    C   1.0     0.413885     0.673200     0.690484  Biso 1.000000     C
    C   1.0     0.913887     0.673200     0.690486  Biso 1.000000     C
    C   1.0     0.374373     0.747561     0.637463  Biso 1.000000     C
    C   1.0     0.874375     0.747561     0.637464  Biso 1.000000     C
    C   1.0     0.368837     0.715058     0.566692  Biso 1.000000     C
    C   1.0     0.868840     0.715059     0.566693  Biso 1.000000     C
    C   1.0     0.328923     0.796997     0.506120  Biso 1.000000     C
    C   1.0     0.828925     0.796999     0.506120  Biso 1.000000     C
    C   1.0     0.402164     0.606010     0.552363  Biso 1.000000     C
    C   1.0     0.902166     0.606011     0.552363  Biso 1.000000     C
    C   1.0     0.440883     0.531043     0.607344  Biso 1.000000     C
    C   1.0     0.940885     0.531043     0.607344  Biso 1.000000     C
    C   1.0     0.159983     0.463274     0.699255  Biso 1.000000     C
    C   1.0     0.659987     0.463272     0.699258  Biso 1.000000     C
    C   1.0     0.206879     0.480702     0.596648  Biso 1.000000     C
    C   1.0     0.706883     0.480700     0.596652  Biso 1.000000     C
    C   1.0     0.226644     0.421941     0.522249  Biso 1.000000     C
    C   1.0     0.726648     0.421939     0.522253  Biso 1.000000     C
    C   1.0     0.230581     0.558783     0.573626  Biso 1.000000     C
    C   1.0     0.730586     0.558780     0.573630  Biso 1.000000     C
    O   1.0     0.346429     0.026368     0.289780  Biso 1.000000     O
    O   1.0     0.846432     0.026368     0.289784  Biso 1.000000     O
    O   1.0     0.423610     0.892184     0.210757  Biso 1.000000     O
    O   1.0     0.923612     0.892184     0.210758  Biso 1.000000     O
    O   1.0     0.064991     0.279873     0.924501  Biso 1.000000     O
    O   1.0     0.564992     0.279874     0.924501  Biso 1.000000     O
    O   1.0     0.498679     0.387544     0.034942  Biso 1.000000     O
    O   1.0     0.998682     0.387543     0.034944  Biso 1.000000     O
    O   1.0     0.306052     0.892911     0.220265  Biso 1.000000     O
    O   1.0     0.806055     0.892914     0.220264  Biso 1.000000     O
    O   1.0     0.216102     0.020876     0.263413  Biso 1.000000     O
    O   1.0     0.716105     0.020882     0.263411  Biso 1.000000     O
    O   1.0     0.004486     0.473591     0.210281  Biso 1.000000     O
    O   1.0     0.504487     0.473588     0.210285  Biso 1.000000     O
    O   1.0     0.475212     0.607907     0.288980  Biso 1.000000     O
    O   1.0     0.975214     0.607908     0.288979  Biso 1.000000     O
    O   1.0     0.167125     0.220052     0.575588  Biso 1.000000     O
    O   1.0     0.667128     0.220054     0.575588  Biso 1.000000     O
    O   1.0     0.209983     0.112466     0.465048  Biso 1.000000     O
    O   1.0     0.709985     0.112467     0.465049  Biso 1.000000     O
    O   1.0     0.362754     0.606958     0.279711  Biso 1.000000     O
    O   1.0     0.862757     0.606957     0.279713  Biso 1.000000     O
    O   1.0     0.358211     0.479343     0.236411  Biso 1.000000     O
    O   1.0     0.858214     0.479341     0.236414  Biso 1.000000     O
    O   1.0     0.153662     0.973569     0.710160  Biso 1.000000     O
    O   1.0     0.653668     0.973566     0.710164  Biso 1.000000     O
    O   1.0     0.076493     0.107752     0.789199  Biso 1.000000     O
    O   1.0     0.576497     0.107751     0.789199  Biso 1.000000     O
    O   1.0     0.435088     0.720095     0.075433  Biso 1.000000     O
    O   1.0     0.935089     0.720095     0.075433  Biso 1.000000     O
    O   1.0     0.001407     0.612422     0.964997  Biso 1.000000     O
    O   1.0     0.501411     0.612420     0.964999  Biso 1.000000     O
    O   1.0     0.194032     0.107050     0.779669  Biso 1.000000     O
    O   1.0     0.694035     0.107053     0.779668  Biso 1.000000     O
    O   1.0     0.283981     0.979081     0.736526  Biso 1.000000     O
    O   1.0     0.783986     0.979089     0.736522  Biso 1.000000     O
    O   1.0     0.495602     0.526394     0.789637  Biso 1.000000     O
    O   1.0     0.995602     0.526391     0.789641  Biso 1.000000     O
    O   1.0     0.024850     0.392038     0.711002  Biso 1.000000     O
    O   1.0     0.524853     0.392039     0.711002  Biso 1.000000     O
    O   1.0     0.332959     0.779901     0.424355  Biso 1.000000     O
    O   1.0     0.832961     0.779903     0.424356  Biso 1.000000     O
    O   1.0     0.290091     0.887484     0.534900  Biso 1.000000     O
    O   1.0     0.790094     0.887486     0.534901  Biso 1.000000     O
    O   1.0     0.137325     0.393018     0.720221  Biso 1.000000     O
    O   1.0     0.637328     0.393018     0.720223  Biso 1.000000     O
    O   1.0     0.141872     0.520627     0.763524  Biso 1.000000     O
    O   1.0     0.641876     0.520624     0.763529  Biso 1.000000     O
   Ca   1.0     0.269221     0.976168     0.369248  Biso 1.000000    Ca
   Ca   1.0     0.769223     0.976170     0.369248  Biso 1.000000    Ca
   Ca   1.0     0.441994     0.523807     0.130688  Biso 1.000000    Ca
   Ca   1.0     0.941996     0.523808     0.130688  Biso 1.000000    Ca
   Ca   1.0     0.230863     0.023789     0.630691  Biso 1.000000    Ca
   Ca   1.0     0.730867     0.023792     0.630691  Biso 1.000000    Ca
   Ca   1.0     0.058088     0.476162     0.869248  Biso 1.000000    Ca
   Ca   1.0     0.558091     0.476162     0.869248  Biso 1.000000    Ca
   Ca   1.0     0.393004     0.749995     0.249893  Biso 1.000000    Ca
   Ca   1.0     0.893006     0.749996     0.249894  Biso 1.000000    Ca
   Ca   1.0     0.107078     0.249970     0.750048  Biso 1.000000    Ca
   Ca   1.0     0.607081     0.249971     0.750048  Biso 1.000000    Ca
