#======================================================================

# CRYSTAL DATA

#----------------------------------------------------------------------

data_VESTA_phase_1


_pd_phase_name                         MOF
_cell_length_a                         18.59500
_cell_length_b                         15.88200
_cell_length_c                         25.28700
_cell_angle_alpha                      90.00000
_cell_angle_beta                       90.00000
_cell_angle_gamma                      90.00000
_symmetry_space_group_name_H-M         "P 1"
_symmetry_Int_Tables_number            1

loop_
_symmetry_equiv_pos_as_xyz
   "x, y, z"

loop_
   _atom_site_label
   _atom_site_occupancy
   _atom_site_fract_x
   _atom_site_fract_y
   _atom_site_fract_z
   _atom_site_adp_type
   _atom_site_B_iso_or_equiv
   _atom_site_type_symbol
    H   1.0     0.335856     0.971304     0.605514  Biso 1.000000     H
    H   1.0     0.859534     0.000000     0.597382  Biso 1.000000     H
    H   1.0     0.261735     0.009068     0.681337  Biso 1.000000     H
    H   1.0     0.793201     0.065080     0.671081  Biso 1.000000     H
    H   1.0     0.389364     0.235794     0.680221  Biso 1.000000     H
    H   1.0     0.958048     0.256120     0.674475  Biso 1.000000     H
    H   1.0     0.462604     0.178022     0.606170  Biso 1.000000     H
    H   1.0     0.000000     0.181817     0.602066  Biso 1.000000     H
    H   1.0     0.172310     0.447272     0.835578  Biso 1.000000     H
    H   1.0     0.741317     0.508822     0.825271  Biso 1.000000     H
    H   1.0     0.249002     0.360999     0.774921  Biso 1.000000     H
    H   1.0     0.815813     0.419244     0.764977  Biso 1.000000     H
    H   1.0     0.131804     0.138768     0.820719  Biso 1.000000     H
    H   1.0     0.690906     0.201891     0.809556  Biso 1.000000     H
    H   1.0     0.053560     0.226118     0.879384  Biso 1.000000     H
    H   1.0     0.614991     0.292544     0.867482  Biso 1.000000     H
    H   1.0     0.214112     0.551664     0.116115  Biso 1.000000     H
    H   1.0     0.692163     0.520995     0.123915  Biso 1.000000     H
    H   1.0     0.289277     0.498396     0.191030  Biso 1.000000     H
    H   1.0     0.775972     0.467184     0.193498  Biso 1.000000     H
    H   1.0     0.137585     0.296549     0.215531  Biso 1.000000     H
    H   1.0     0.663429     0.229931     0.192888  Biso 1.000000     H
    H   1.0     0.062642     0.351547     0.141441  Biso 1.000000     H
    H   1.0     0.578409     0.285509     0.125453  Biso 1.000000     H
    H   1.0     0.369108     0.073689     0.354829  Biso 1.000000     H
    H   1.0     0.904345     0.052948     0.353111  Biso 1.000000     H
    H   1.0     0.294230     0.160584     0.293451  Biso 1.000000     H
    H   1.0     0.823319     0.124619     0.288832  Biso 1.000000     H
    H   1.0     0.397596     0.385022     0.351741  Biso 1.000000     H
    H   1.0     0.918121     0.363466     0.330975  Biso 1.000000     H
    H   1.0     0.475681     0.297071     0.410057  Biso 1.000000     H
    H   1.0     0.000000     0.290508     0.392822  Biso 1.000000     H
    H   1.0     0.161065     0.008606     0.349587  Biso 1.000000     H
    H   1.0     0.693409     0.002836     0.343630  Biso 1.000000     H
    H   1.0     0.241262     0.981106     0.275103  Biso 1.000000     H
    H   1.0     0.771118     0.960297     0.271628  Biso 1.000000     H
    H   1.0     0.114742     0.754639     0.259584  Biso 1.000000     H
    H   1.0     0.644209     0.732988     0.275891  Biso 1.000000     H
    H   1.0     0.034336     0.803373     0.331932  Biso 1.000000     H
    H   1.0     0.566729     0.795614     0.345910  Biso 1.000000     H
    H   1.0     0.356917     0.569845     0.111961  Biso 1.000000     H
    H   1.0     0.854452     0.521614     0.114758  Biso 1.000000     H
    H   1.0     0.274634     0.649492     0.172297  Biso 1.000000     H
    H   1.0     0.777277     0.608971     0.174466  Biso 1.000000     H
    H   1.0     0.375105     0.881705     0.123886  Biso 1.000000     H
    H   1.0     0.905166     0.827589     0.137326  Biso 1.000000     H
    H   1.0     0.458973     0.801587     0.066481  Biso 1.000000     H
    H   1.0     0.983807     0.738985     0.080185  Biso 1.000000     H
    H   1.0     0.312249     0.477540     0.825280  Biso 1.000000     H
    H   1.0     0.903549     0.519755     0.824469  Biso 1.000000     H
    H   1.0     0.243342     0.534301     0.748306  Biso 1.000000     H
    H   1.0     0.828365     0.576393     0.750710  Biso 1.000000     H
    H   1.0     0.404271     0.727404     0.727791  Biso 1.000000     H
    H   1.0     0.966825     0.793868     0.741857  Biso 1.000000     H
    H   1.0     0.472528     0.669498     0.804086  Biso 1.000000     H
    H   1.0     0.000000     0.734602     0.813599  Biso 1.000000     H
    H   1.0     0.199338     0.984627     0.598608  Biso 1.000000     H
    H   1.0     0.724026     0.000000     0.608179  Biso 1.000000     H
    H   1.0     0.265734     0.882069     0.655920  Biso 1.000000     H
    H   1.0     0.800474     0.923953     0.668549  Biso 1.000000     H
    H   1.0     0.148261     0.677533     0.584625  Biso 1.000000     H
    H   1.0     0.716007     0.698958     0.596229  Biso 1.000000     H
    H   1.0     0.078832     0.780579     0.531083  Biso 1.000000     H
    H   1.0     0.635887     0.787187     0.539540  Biso 1.000000     H
    H   1.0     0.106788     0.008212     0.824735  Biso 1.000000     H
    H   1.0     0.645636     0.003029     0.819756  Biso 1.000000     H
    H   1.0     0.571575     0.959225     0.747787  Biso 1.000000     H
    H   1.0     0.000000     0.979559     0.750929  Biso 1.000000     H
    H   1.0     0.155414     0.752989     0.736068  Biso 1.000000     H
    H   1.0     0.699641     0.732871     0.753234  Biso 1.000000     H
    H   1.0     0.236423     0.802797     0.807748  Biso 1.000000     H
    H   1.0     0.776432     0.796757     0.823208  Biso 1.000000     H
    H   1.0     0.485677     0.522117     0.591219  Biso 1.000000     H
    H   1.0     0.982338     0.569403     0.588722  Biso 1.000000     H
    H   1.0     0.564028     0.607991     0.650944  Biso 1.000000     H
    H   1.0     0.000000     0.647662     0.649657  Biso 1.000000     H
    H   1.0     0.438185     0.828567     0.614735  Biso 1.000000     H
    H   1.0     0.969784     0.881796     0.598972  Biso 1.000000     H
    H   1.0     0.358410     0.741504     0.557510  Biso 1.000000     H
    H   1.0     0.885327     0.803156     0.541290  Biso 1.000000     H
    H   1.0     0.438961     0.519949     0.353764  Biso 1.000000     H
    H   1.0     0.000000     0.476363     0.350981  Biso 1.000000     H
    H   1.0     0.026002     0.533705     0.274152  Biso 1.000000     H
    H   1.0     0.513485     0.577221     0.279830  Biso 1.000000     H
    H   1.0     0.370042     0.789878     0.268126  Biso 1.000000     H
    H   1.0     0.936354     0.724929     0.252961  Biso 1.000000     H
    H   1.0     0.294677     0.730250     0.340338  Biso 1.000000     H
    H   1.0     0.868376     0.666690     0.329286  Biso 1.000000     H
    H   1.0     0.071389     0.982667     0.124162  Biso 1.000000     H
    H   1.0     0.617643     0.000000     0.135586  Biso 1.000000     H
    H   1.0     0.004108     0.880793     0.181355  Biso 1.000000     H
    H   1.0     0.539842     0.922148     0.195615  Biso 1.000000     H
    H   1.0     0.119808     0.675047     0.109815  Biso 1.000000     H
    H   1.0     0.622313     0.696043     0.123327  Biso 1.000000     H
    H   1.0     0.190438     0.777436     0.056637  Biso 1.000000     H
    H   1.0     0.703590     0.783124     0.066915  Biso 1.000000     H
    H   1.0     0.484099     0.000000     0.122088  Biso 1.000000     H
    H   1.0     0.000000     0.970959     0.132277  Biso 1.000000     H
    H   1.0     0.007218     0.010692     0.206759  Biso 1.000000     H
    H   1.0     0.548002     0.066682     0.195217  Biso 1.000000     H
    H   1.0     0.384570     0.259413     0.197057  Biso 1.000000     H
    H   1.0     0.952602     0.237641     0.204305  Biso 1.000000     H
    H   1.0     0.319214     0.184155     0.125348  Biso 1.000000     H
    H   1.0     0.877832     0.177809     0.131759  Biso 1.000000     H
    H   1.0     0.097994     0.447599     0.361853  Biso 1.000000     H
    H   1.0     0.601250     0.508622     0.351070  Biso 1.000000     H
    H   1.0     0.021948     0.363220     0.299697  Biso 1.000000     H
    H   1.0     0.526386     0.420686     0.290022  Biso 1.000000     H
    H   1.0     0.137220     0.139175     0.344653  Biso 1.000000     H
    H   1.0     0.651032     0.201985     0.332369  Biso 1.000000     H
    H   1.0     0.214990     0.224699     0.404728  Biso 1.000000     H
    H   1.0     0.727200     0.291025     0.391138  Biso 1.000000     H
    H   1.0     0.053737     0.553079     0.593518  Biso 1.000000     H
    H   1.0     0.648718     0.522272     0.598223  Biso 1.000000     H
    H   1.0     0.565941     0.467915     0.668354  Biso 1.000000     H
    H   1.0     0.000000     0.498813     0.668336  Biso 1.000000     H
    H   1.0     0.130945     0.297094     0.691780  Biso 1.000000     H
    H   1.0     0.681117     0.232440     0.668451  Biso 1.000000     H
    H   1.0     0.205575     0.352994     0.617776  Biso 1.000000     H
    H   1.0     0.765029     0.288487     0.600402  Biso 1.000000     H
    H   1.0     0.435993     0.054641     0.826521  Biso 1.000000     H
    H   1.0     0.970433     0.074806     0.831592  Biso 1.000000     H
    H   1.0     0.518366     0.126132     0.763072  Biso 1.000000     H
    H   1.0     0.000000     0.161059     0.770471  Biso 1.000000     H
    H   1.0     0.426079     0.365745     0.806511  Biso 1.000000     H
    H   1.0     0.943489     0.386296     0.828129  Biso 1.000000     H
    H   1.0     0.341828     0.293044     0.867609  Biso 1.000000     H
    H   1.0     0.864451     0.298993     0.886155  Biso 1.000000     H
    C   1.0     0.444308     0.031345     0.554850  Biso 1.000000     C
    C   1.0     0.983531     0.042228     0.550526  Biso 1.000000     C
    C   1.0     0.402370     0.062389     0.601090  Biso 1.000000     C
    C   1.0     0.944330     0.082589     0.595258  Biso 1.000000     C
    C   1.0     0.346164     0.014624     0.622700  Biso 1.000000     C
    C   1.0     0.879726     0.049650     0.614932  Biso 1.000000     C
    C   1.0     0.305640     0.045799     0.664522  Biso 1.000000     C
    C   1.0     0.843520     0.090352     0.655710  Biso 1.000000     C
    C   1.0     0.319708     0.126811     0.685180  Biso 1.000000     C
    C   1.0     0.870692     0.166009     0.677370  Biso 1.000000     C
    C   1.0     0.377479     0.173870     0.663946  Biso 1.000000     C
    C   1.0     0.936343     0.198266     0.657744  Biso 1.000000     C
    C   1.0     0.418327     0.141731     0.622741  Biso 1.000000     C
    C   1.0     0.972430     0.156840     0.617473  Biso 1.000000     C
    C   1.0     0.275873     0.162455     0.725062  Biso 1.000000     C
    C   1.0     0.832391     0.211030     0.716576  Biso 1.000000     C
    C   1.0     0.062499     0.395862     0.895343  Biso 1.000000     C
    C   1.0     0.626050     0.458148     0.884334  Biso 1.000000     C
    C   1.0     0.108412     0.341967     0.860990  Biso 1.000000     C
    C   1.0     0.673440     0.406047     0.849870  Biso 1.000000     C
    C   1.0     0.163984     0.379679     0.831738  Biso 1.000000     C
    C   1.0     0.730580     0.441681     0.821237  Biso 1.000000     C
    C   1.0     0.206540     0.331838     0.798274  Biso 1.000000     C
    C   1.0     0.772111     0.391893     0.787956  Biso 1.000000     C
    C   1.0     0.194999     0.244164     0.793460  Biso 1.000000     C
    C   1.0     0.758052     0.304720     0.782970  Biso 1.000000     C
    C   1.0     0.139880     0.206449     0.823674  Biso 1.000000     C
    C   1.0     0.701466     0.269158     0.812705  Biso 1.000000     C
    C   1.0     0.096893     0.254905     0.856744  Biso 1.000000     C
    C   1.0     0.659570     0.319422     0.845274  Biso 1.000000     C
    C   1.0     0.237837     0.197364     0.757787  Biso 1.000000     C
    C   1.0     0.799004     0.254170     0.748126  Biso 1.000000     C
    C   1.0     0.089234     0.484929     0.079352  Biso 1.000000     C
    C   1.0     0.582730     0.440245     0.077647  Biso 1.000000     C
    C   1.0     0.133731     0.455118     0.124511  Biso 1.000000     C
    C   1.0     0.630134     0.406806     0.120374  Biso 1.000000     C
    C   1.0     0.197541     0.496579     0.138649  Biso 1.000000     C
    C   1.0     0.686030     0.457742     0.139893  Biso 1.000000     C
    C   1.0     0.239437     0.466766     0.180104  Biso 1.000000     C
    C   1.0     0.732817     0.427726     0.178189  Biso 1.000000     C
    C   1.0     0.218630     0.393785     0.208161  Biso 1.000000     C
    C   1.0     0.725933     0.344647     0.197615  Biso 1.000000     C
    C   1.0     0.154006     0.352639     0.193924  Biso 1.000000     C
    C   1.0     0.669608     0.293773     0.177898  Biso 1.000000     C
    C   1.0     0.112229     0.383246     0.152776  Biso 1.000000     C
    C   1.0     0.622027     0.324806     0.140212  Biso 1.000000     C
    C   1.0     0.262315     0.359594     0.248613  Biso 1.000000     C
    C   1.0     0.775076     0.313428     0.235644  Biso 1.000000     C
    C   1.0     0.471818     0.125874     0.420672  Biso 1.000000     C
    C   1.0     0.000000     0.119579     0.414200  Biso 1.000000     C
    C   1.0     0.426845     0.180134     0.385957  Biso 1.000000     C
    C   1.0     0.957958     0.166934     0.376833  Biso 1.000000     C
    C   1.0     0.375120     0.141846     0.353369  Biso 1.000000     C
    C   1.0     0.907103     0.120817     0.347562  Biso 1.000000     C
    C   1.0     0.333430     0.190042     0.319576  Biso 1.000000     C
    C   1.0     0.861781     0.160741     0.312119  Biso 1.000000     C
    C   1.0     0.341616     0.278513     0.318196  Biso 1.000000     C
    C   1.0     0.865128     0.249028     0.305249  Biso 1.000000     C
    C   1.0     0.392443     0.316775     0.351892  Biso 1.000000     C
    C   1.0     0.915728     0.295311     0.335161  Biso 1.000000     C
    C   1.0     0.435176     0.267889     0.384906  Biso 1.000000     C
    C   1.0     0.961886     0.254504     0.370179  Biso 1.000000     C
    C   1.0     0.299432     0.325530     0.282216  Biso 1.000000     C
    C   1.0     0.817992     0.287261     0.268370  Biso 1.000000     C
    C   1.0     0.048164     0.949368     0.389907  Biso 1.000000     C
    C   1.0     0.583315     0.948074     0.393339  Biso 1.000000     C
    C   1.0     0.093102     0.918710     0.344987  Biso 1.000000     C
    C   1.0     0.626350     0.911943     0.349157  Biso 1.000000     C
    C   1.0     0.151892     0.968018     0.328738  Biso 1.000000     C
    C   1.0     0.683990     0.958220     0.327937  Biso 1.000000     C
    C   1.0     0.196021     0.942340     0.287668  Biso 1.000000     C
    C   1.0     0.726560     0.924373     0.288209  Biso 1.000000     C
    C   1.0     0.183443     0.864610     0.262143  Biso 1.000000     C
    C   1.0     0.713208     0.842106     0.269254  Biso 1.000000     C
    C   1.0     0.124794     0.814636     0.278975  Biso 1.000000     C
    C   1.0     0.655055     0.796065     0.290688  Biso 1.000000     C
    C   1.0     0.079801     0.841837     0.319448  Biso 1.000000     C
    C   1.0     0.611820     0.830951     0.329696  Biso 1.000000     C
    C   1.0     0.229999     0.836661     0.221521  Biso 1.000000     C
    C   1.0     0.757268     0.805083     0.230049  Biso 1.000000     C
    C   1.0     0.461383     0.629674     0.051316  Biso 1.000000     C
    C   1.0     0.973134     0.572816     0.061024  Biso 1.000000     C
    C   1.0     0.412862     0.680604     0.085565  Biso 1.000000     C
    C   1.0     0.924309     0.624878     0.094359  Biso 1.000000     C
    C   1.0     0.360354     0.638061     0.115311  Biso 1.000000     C
    C   1.0     0.865312     0.588410     0.120355  Biso 1.000000     C
    C   1.0     0.314576     0.682103     0.148400  Biso 1.000000     C
    C   1.0     0.822294     0.636915     0.153239  Biso 1.000000     C
    C   1.0     0.319246     0.770714     0.152286  Biso 1.000000     C
    C   1.0     0.836672     0.723561     0.160654  Biso 1.000000     C
    C   1.0     0.371382     0.813417     0.121881  Biso 1.000000     C
    C   1.0     0.894604     0.760477     0.132924  Biso 1.000000     C
    C   1.0     0.417934     0.768593     0.089210  Biso 1.000000     C
    C   1.0     0.938047     0.711304     0.100666  Biso 1.000000     C
    C   1.0     0.272089     0.811706     0.187895  Biso 1.000000     C
    C   1.0     0.794398     0.769993     0.196855  Biso 1.000000     C
    C   1.0     0.437902     0.540224     0.866501  Biso 1.000000     C
    C   1.0     0.000000     0.589027     0.867870  Biso 1.000000     C
    C   1.0     0.396566     0.570067     0.819559  Biso 1.000000     C
    C   1.0     0.978121     0.623326     0.823259  Biso 1.000000     C
    C   1.0     0.332205     0.531718     0.803302  Biso 1.000000     C
    C   1.0     0.917456     0.578952     0.805368  Biso 1.000000     C
    C   1.0     0.293702     0.563583     0.760509  Biso 1.000000     C
    C   1.0     0.875396     0.610717     0.764728  Biso 1.000000     C
    C   1.0     0.318646     0.635496     0.733101  Biso 1.000000     C
    C   1.0     0.892332     0.689224     0.741609  Biso 1.000000     C
    C   1.0     0.384264     0.672657     0.749102  Biso 1.000000     C
    C   1.0     0.953378     0.733620     0.759781  Biso 1.000000     C
    C   1.0     0.422395     0.640300     0.791533  Biso 1.000000     C
    C   1.0     0.996008     0.700611     0.799761  Biso 1.000000     C
    C   1.0     0.279082     0.674613     0.691962  Biso 1.000000     C
    C   1.0     0.847837     0.724705     0.702201  Biso 1.000000     C
    C   1.0     0.090123     0.948791     0.530043  Biso 1.000000     C
    C   1.0     0.629278     0.956765     0.535547  Biso 1.000000     C
    C   1.0     0.134900     0.888932     0.561480  Biso 1.000000     C
    C   1.0     0.675989     0.904584     0.570241  Biso 1.000000     C
    C   1.0     0.188449     0.917376     0.596132  Biso 1.000000     C
    C   1.0     0.722541     0.943256     0.606457  Biso 1.000000     C
    C   1.0     0.225767     0.860377     0.627539  Biso 1.000000     C
    C   1.0     0.765192     0.894711     0.639488  Biso 1.000000     C
    C   1.0     0.211453     0.773081     0.624359  Biso 1.000000     C
    C   1.0     0.763541     0.805923     0.636085  Biso 1.000000     C
    C   1.0     0.158941     0.744667     0.588254  Biso 1.000000     C
    C   1.0     0.716934     0.767341     0.599336  Biso 1.000000     C
    C   1.0     0.120854     0.802140     0.557830  Biso 1.000000     C
    C   1.0     0.672988     0.816387     0.567366  Biso 1.000000     C
    C   1.0     0.248049     0.717193     0.658794  Biso 1.000000     C
    C   1.0     0.808289     0.758805     0.670209  Biso 1.000000     C
    C   1.0     0.223313     0.949834     0.864832  Biso 1.000000     C
    C   1.0     0.758953     0.949546     0.870005  Biso 1.000000     C
    C   1.0     0.177802     0.918341     0.820426  Biso 1.000000     C
    C   1.0     0.716220     0.912706     0.825870  Biso 1.000000     C
    C   1.0     0.118793     0.967324     0.804191  Biso 1.000000     C
    C   1.0     0.658437     0.958349     0.804332  Biso 1.000000     C
    C   1.0     0.074288     0.941000     0.763497  Biso 1.000000     C
    C   1.0     0.616246     0.923799     0.764623  Biso 1.000000     C
    C   1.0     0.086735     0.862989     0.738266  Biso 1.000000     C
    C   1.0     0.630108     0.841455     0.745979  Biso 1.000000     C
    C   1.0     0.145478     0.813241     0.755177  Biso 1.000000     C
    C   1.0     0.688397     0.796030     0.767732  Biso 1.000000     C
    C   1.0     0.190841     0.841078     0.795269  Biso 1.000000     C
    C   1.0     0.731258     0.831636     0.806724  Biso 1.000000     C
    C   1.0     0.040002     0.834754     0.697811  Biso 1.000000     C
    C   1.0     0.586194     0.803996     0.706833  Biso 1.000000     C
    C   1.0     0.367418     0.575249     0.537776  Biso 1.000000     C
    C   1.0     0.880325     0.631242     0.526494  Biso 1.000000     C
    C   1.0     0.416811     0.626478     0.571196  Biso 1.000000     C
    C   1.0     0.928900     0.681268     0.561256  Biso 1.000000     C
    C   1.0     0.475525     0.589026     0.597004  Biso 1.000000     C
    C   1.0     0.980029     0.637732     0.591740  Biso 1.000000     C
    C   1.0     0.519229     0.636706     0.629880  Biso 1.000000     C
    C   1.0     0.000000     0.680998     0.625110  Biso 1.000000     C
    C   1.0     0.505807     0.723494     0.637550  Biso 1.000000     C
    C   1.0     0.000000     0.769761     0.628475  Biso 1.000000     C
    C   1.0     0.448096     0.761362     0.610068  Biso 1.000000     C
    C   1.0     0.972244     0.813403     0.597383  Biso 1.000000     C
    C   1.0     0.403966     0.713028     0.577805  Biso 1.000000     C
    C   1.0     0.925334     0.769376     0.564551  Biso 1.000000     C
    C   1.0     0.548732     0.769220     0.673704  Biso 1.000000     C
    C   1.0     0.000000     0.810059     0.664165  Biso 1.000000     C
    C   1.0     0.319407     0.586514     0.395976  Biso 1.000000     C
    C   1.0     0.903760     0.538104     0.392044  Biso 1.000000     C
    C   1.0     0.362128     0.621177     0.351279  Biso 1.000000     C
    C   1.0     0.944975     0.568077     0.345040  Biso 1.000000     C
    C   1.0     0.423856     0.578210     0.334014  Biso 1.000000     C
    C   1.0     0.000000     0.530274     0.328908  Biso 1.000000     C
    C   1.0     0.465532     0.610345     0.293274  Biso 1.000000     C
    C   1.0     0.000000     0.562470     0.286190  Biso 1.000000     C
    C   1.0     0.446946     0.687615     0.269204  Biso 1.000000     C
    C   1.0     0.000000     0.634003     0.258599  Biso 1.000000     C
    C   1.0     0.384812     0.730580     0.286731  Biso 1.000000     C
    C   1.0     0.956757     0.670512     0.274410  Biso 1.000000     C
    C   1.0     0.342707     0.697295     0.326942  Biso 1.000000     C
    C   1.0     0.918736     0.637917     0.316835  Biso 1.000000     C
    C   1.0     0.491094     0.723240     0.229595  Biso 1.000000     C
    C   1.0     0.000000     0.673302     0.217489  Biso 1.000000     C
    C   1.0     0.180685     0.945958     0.055981  Biso 1.000000     C
    C   1.0     0.712032     0.953141     0.063301  Biso 1.000000     C
    C   1.0     0.135245     0.886365     0.087113  Biso 1.000000     C
    C   1.0     0.664678     0.901116     0.097658  Biso 1.000000     C
    C   1.0     0.081751     0.915304     0.121653  Biso 1.000000     C
    C   1.0     0.618320     0.940287     0.133794  Biso 1.000000     C
    C   1.0     0.043897     0.858669     0.152969  Biso 1.000000     C
    C   1.0     0.574949     0.892355     0.166657  Biso 1.000000     C
    C   1.0     0.057501     0.771215     0.149735  Biso 1.000000     C
    C   1.0     0.575721     0.803555     0.163220  Biso 1.000000     C
    C   1.0     0.109785     0.742302     0.113597  Biso 1.000000     C
    C   1.0     0.622092     0.764431     0.126523  Biso 1.000000     C
    C   1.0     0.148513     0.799428     0.083332  Biso 1.000000     C
    C   1.0     0.666708     0.812899     0.094664  Biso 1.000000     C
    C   1.0     0.020593     0.715661     0.184231  Biso 1.000000     C
    C   1.0     0.530613     0.756944     0.197408  Biso 1.000000     C
    C   1.0     0.356891     0.042543     0.075447  Biso 1.000000     C
    C   1.0     0.894890     0.029357     0.082110  Biso 1.000000     C
    C   1.0     0.396861     0.083957     0.119407  Biso 1.000000     C
    C   1.0     0.937822     0.061899     0.127421  Biso 1.000000     C
    C   1.0     0.461359     0.050913     0.139198  Biso 1.000000     C
    C   1.0     0.994490     0.014750     0.148911  Biso 1.000000     C
    C   1.0     0.497870     0.092105     0.179619  Biso 1.000000     C
    C   1.0     0.000000     0.047028     0.189954  Biso 1.000000     C
    C   1.0     0.471124     0.168326     0.200766  Biso 1.000000     C
    C   1.0     0.000000     0.128586     0.209889  Biso 1.000000     C
    C   1.0     0.405830     0.201001     0.180793  Biso 1.000000     C
    C   1.0     0.964102     0.175217     0.188644  Biso 1.000000     C
    C   1.0     0.369382     0.159045     0.140925  Biso 1.000000     C
    C   1.0     0.922402     0.141932     0.148265  Biso 1.000000     C
    C   1.0     0.509454     0.213250     0.239963  Biso 1.000000     C
    C   1.0     0.000000     0.164821     0.249278  Biso 1.000000     C
    C   1.0     0.206025     0.393888     0.422544  Biso 1.000000     C
    C   1.0     0.716199     0.456185     0.409668  Biso 1.000000     C
    C   1.0     0.160806     0.341217     0.386999  Biso 1.000000     C
    C   1.0     0.668851     0.405037     0.374670  Biso 1.000000     C
    C   1.0     0.106030     0.380035     0.357497  Biso 1.000000     C
    C   1.0     0.611783     0.441543     0.346395  Biso 1.000000     C
    C   1.0     0.063822     0.333254     0.323221  Biso 1.000000     C
    C   1.0     0.570073     0.392684     0.312708  Biso 1.000000     C
    C   1.0     0.074852     0.245567     0.317906  Biso 1.000000     C
    C   1.0     0.583973     0.305610     0.306924  Biso 1.000000     C
    C   1.0     0.129398     0.206824     0.348163  Biso 1.000000     C
    C   1.0     0.640582     0.269181     0.336224  Biso 1.000000     C
    C   1.0     0.172111     0.254237     0.382001  Biso 1.000000     C
    C   1.0     0.682625     0.318523     0.369226  Biso 1.000000     C
    C   1.0     0.031938     0.199558     0.281898  Biso 1.000000     C
    C   1.0     0.542878     0.255911     0.271732  Biso 1.000000     C
    C   1.0     0.178538     0.487028     0.556253  Biso 1.000000     C
    C   1.0     0.758701     0.442564     0.551980  Biso 1.000000     C
    C   1.0     0.134267     0.456609     0.601371  Biso 1.000000     C
    C   1.0     0.711920     0.408932     0.594981  Biso 1.000000     C
    C   1.0     0.070443     0.497781     0.615782  Biso 1.000000     C
    C   1.0     0.655652     0.459309     0.614470  Biso 1.000000     C
    C   1.0     0.028736     0.467451     0.657182  Biso 1.000000     C
    C   1.0     0.609472     0.429022     0.653062  Biso 1.000000     C
    C   1.0     0.049743     0.394241     0.684914  Biso 1.000000     C
    C   1.0     0.617387     0.346282     0.672812  Biso 1.000000     C
    C   1.0     0.114381     0.353368     0.670416  Biso 1.000000     C
    C   1.0     0.674139     0.295995     0.653182  Biso 1.000000     C
    C   1.0     0.155971     0.384478     0.629308  Biso 1.000000     C
    C   1.0     0.721102     0.327299     0.615174  Biso 1.000000     C
    C   1.0     0.006174     0.359817     0.725341  Biso 1.000000     C
    C   1.0     0.568561     0.314901     0.710979  Biso 1.000000     C
    C   1.0     0.335682     0.121909     0.887739  Biso 1.000000     C
    C   1.0     0.867463     0.127761     0.896817  Biso 1.000000     C
    C   1.0     0.383585     0.169101     0.850811  Biso 1.000000     C
    C   1.0     0.912926     0.181710     0.862314  Biso 1.000000     C
    C   1.0     0.434095     0.122642     0.821435  Biso 1.000000     C
    C   1.0     0.964753     0.142993     0.830020  Biso 1.000000     C
    C   1.0     0.480150     0.162435     0.786466  Biso 1.000000     C
    C   1.0     0.000000     0.190831     0.796379  Biso 1.000000     C
    C   1.0     0.477828     0.250873     0.780187  Biso 1.000000     C
    C   1.0     0.999110     0.279331     0.794855  Biso 1.000000     C
    C   1.0     0.427611     0.297491     0.810238  Biso 1.000000     C
    C   1.0     0.948246     0.318016     0.828328  Biso 1.000000     C
    C   1.0     0.380747     0.256835     0.844805  Biso 1.000000     C
    C   1.0     0.905012     0.269505     0.861193  Biso 1.000000     C
    C   1.0     0.525459     0.288941     0.743622  Biso 1.000000     C
    C   1.0     0.000000     0.326006     0.758926  Biso 1.000000     C
    O   1.0     0.498919     0.073673     0.540815  Biso 1.000000     O
    O   1.0     0.000000     0.078082     0.536245  Biso 1.000000     O
    O   1.0     0.423564     0.981680     0.531339  Biso 1.000000     O
    O   1.0     0.958906     0.993190     0.528988  Biso 1.000000     O
    O   1.0     0.005334     0.362463     0.915575  Biso 1.000000     O
    O   1.0     0.570141     0.422875     0.902947  Biso 1.000000     O
    O   1.0     0.082011     0.471691     0.902447  Biso 1.000000     O
    O   1.0     0.644083     0.535484     0.893251  Biso 1.000000     O
    O   1.0     0.033503     0.443048     0.067424  Biso 1.000000     O
    O   1.0     0.527712     0.396005     0.063564  Biso 1.000000     O
    O   1.0     0.110595     0.551948     0.054642  Biso 1.000000     O
    O   1.0     0.600311     0.510559     0.057204  Biso 1.000000     O
    O   1.0     0.529829     0.157951     0.440376  Biso 1.000000     O
    O   1.0     0.000000     0.154682     0.432701  Biso 1.000000     O
    O   1.0     0.450563     0.050794     0.428469  Biso 1.000000     O
    O   1.0     0.984848     0.044928     0.425161  Biso 1.000000     O
    O   1.0    -0.008038     0.907431     0.403602  Biso 1.000000     O
    O   1.0     0.526357     0.907539     0.407864  Biso 1.000000     O
    O   1.0     0.068434    -0.001218     0.412255  Biso 1.000000     O
    O   1.0     0.604455    -0.002190     0.414442  Biso 1.000000     O
    O   1.0     0.517629     0.665276     0.031337  Biso 1.000000     O
    O   1.0     0.000000     0.607389     0.043256  Biso 1.000000     O
    O   1.0     0.444345     0.552904     0.044099  Biso 1.000000     O
    O   1.0     0.954820     0.495363     0.052382  Biso 1.000000     O
    O   1.0     0.492453     0.583300     0.879930  Biso 1.000000     O
    O   1.0     0.000000     0.631172     0.882438  Biso 1.000000     O
    O   1.0     0.416324     0.473192     0.890940  Biso 1.000000     O
    O   1.0     0.999809     0.521011     0.889277  Biso 1.000000     O
    O   1.0     0.031076     0.918997     0.512621  Biso 1.000000     O
    O   1.0     0.573718     0.922368     0.516012  Biso 1.000000     O
    O   1.0     0.112480     0.000000     0.522607  Biso 1.000000     O
    O   1.0     0.648588     0.000000     0.527579  Biso 1.000000     O
    O   1.0     0.279613     0.908044     0.878565  Biso 1.000000     O
    O   1.0     0.816201     0.909630     0.884554  Biso 1.000000     O
    O   1.0     0.200548    -0.000246     0.886794  Biso 1.000000     O
    O   1.0     0.734430    -0.000892     0.891062  Biso 1.000000     O
    O   1.0     0.310911     0.610464     0.520253  Biso 1.000000     O
    O   1.0     0.823903     0.667264     0.507059  Biso 1.000000     O
    O   1.0     0.385297     0.497778     0.528782  Biso 1.000000     O
    O   1.0     0.897677     0.554807     0.518371  Biso 1.000000     O
    O   1.0     0.263380     0.628455     0.410798  Biso 1.000000     O
    O   1.0     0.849821     0.581836     0.406028  Biso 1.000000     O
    O   1.0     0.341031     0.518464     0.417205  Biso 1.000000     O
    O   1.0     0.924845     0.470445     0.415956  Biso 1.000000     O
    O   1.0     0.240146     0.916116     0.039335  Biso 1.000000     O
    O   1.0     0.767805     0.918754     0.044131  Biso 1.000000     O
    O   1.0     0.158368     0.000000     0.048081  Biso 1.000000     O
    O   1.0     0.692875     0.000000     0.055259  Biso 1.000000     O
    O   1.0     0.298462     0.077958     0.061618  Biso 1.000000     O
    O   1.0     0.839722     0.070964     0.068358  Biso 1.000000     O
    O   1.0     0.384217     0.993186     0.054199  Biso 1.000000     O
    O   1.0     0.918322     0.979212     0.059025  Biso 1.000000     O
    O   1.0     0.262872     0.359884     0.442881  Biso 1.000000     O
    O   1.0     0.771760     0.420266     0.428353  Biso 1.000000     O
    O   1.0     0.186201     0.469369     0.430527  Biso 1.000000     O
    O   1.0     0.698378     0.533481     0.418948  Biso 1.000000     O
    O   1.0     0.234314     0.445431     0.544077  Biso 1.000000     O
    O   1.0     0.813888     0.398712     0.537782  Biso 1.000000     O
    O   1.0     0.157008     0.554216     0.531786  Biso 1.000000     O
    O   1.0     0.740451     0.512571     0.531407  Biso 1.000000     O
    O   1.0     0.278771     0.157366     0.906308  Biso 1.000000     O
    O   1.0     0.809285     0.160018     0.916151  Biso 1.000000     O
    O   1.0     0.355400     0.046912     0.898395  Biso 1.000000     O
    O   1.0     0.888593     0.052709     0.904885  Biso 1.000000     O
   Zn   1.0     0.046224     0.578226     0.944464  Biso 1.000000    Zn
   Zn   1.0     0.571156     0.585819     0.939459  Biso 1.000000    Zn
   Zn   1.0     0.485146     0.961056     0.470195  Biso 1.000000    Zn
   Zn   1.0     0.000000     0.961207     0.467607  Biso 1.000000    Zn
   Zn   1.0     0.481124     0.448649     0.002162  Biso 1.000000    Zn
   Zn   1.0     0.000000     0.442237     0.007222  Biso 1.000000    Zn
   Zn   1.0     0.041944     0.069704     0.476574  Biso 1.000000    Zn
   Zn   1.0     0.578130     0.070361     0.480986  Biso 1.000000    Zn
   Zn   1.0     0.313608     0.445098     0.483565  Biso 1.000000    Zn
   Zn   1.0     0.859489     0.451661     0.476175  Biso 1.000000    Zn
   Zn   1.0     0.226172     0.066606     0.002079  Biso 1.000000    Zn
   Zn   1.0     0.760278     0.067098     0.008751  Biso 1.000000    Zn
   Zn   1.0     0.222272     0.575440     0.473127  Biso 1.000000    Zn
   Zn   1.0     0.770834     0.583305     0.465532  Biso 1.000000    Zn
   Zn   1.0     0.323156     0.963941     0.941981  Biso 1.000000    Zn
   Zn   1.0     0.857018     0.963643     0.946864  Biso 1.000000    Zn
