#======================================================================

# CRYSTAL DATA

#----------------------------------------------------------------------

data_VESTA_phase_1


_pd_phase_name                         MOF
_cell_length_a                         15.49400
_cell_length_b                         15.52000
_cell_length_c                         15.51100
_cell_angle_alpha                      74.37500
_cell_angle_beta                       74.60100
_cell_angle_gamma                      74.55100
_symmetry_space_group_name_H-M         "P 1"
_symmetry_Int_Tables_number            1

loop_
_symmetry_equiv_pos_as_xyz
   "x, y, z"

loop_
   _atom_site_label
   _atom_site_occupancy
   _atom_site_fract_x
   _atom_site_fract_y
   _atom_site_fract_z
   _atom_site_adp_type
   _atom_site_B_iso_or_equiv
   _atom_site_type_symbol
    H   1.0     0.527846     0.991042     0.297047  Biso 1.000000     H
    H   1.0     0.297206     0.526997     0.991631  Biso 1.000000     H
    H   1.0     0.991437     0.297260     0.527861  Biso 1.000000     H
    H   1.0     0.008814     0.472299     0.702580  Biso 1.000000     H
    H   1.0     0.471973     0.702965     0.008763  Biso 1.000000     H
    H   1.0     0.702742     0.008520     0.472772  Biso 1.000000     H
    H   1.0     0.472295     0.008940     0.702622  Biso 1.000000     H
    H   1.0     0.702501     0.473050     0.008275  Biso 1.000000     H
    H   1.0     0.008593     0.702850     0.471991  Biso 1.000000     H
    H   1.0     0.990950     0.527818     0.297279  Biso 1.000000     H
    H   1.0     0.527810     0.297160     0.991169  Biso 1.000000     H
    H   1.0     0.297508     0.991538     0.527007  Biso 1.000000     H
    H   1.0     0.264946     0.976935     0.264653  Biso 1.000000     H
    H   1.0     0.264964     0.264705     0.977025  Biso 1.000000     H
    H   1.0     0.976639     0.265344     0.265409  Biso 1.000000     H
    H   1.0     0.023359     0.734683     0.734485  Biso 1.000000     H
    H   1.0     0.734914     0.735341     0.022697  Biso 1.000000     H
    H   1.0     0.735082     0.023225     0.735174  Biso 1.000000     H
    C   1.0     0.400626     0.983104     0.271341  Biso 1.000000     C
    C   1.0     0.456363     0.988254     0.326617  Biso 1.000000     C
    C   1.0     0.438878     0.984359     0.171893  Biso 1.000000     C
    C   1.0     0.271522     0.400108     0.983477  Biso 1.000000     C
    C   1.0     0.326885     0.455687     0.988628  Biso 1.000000     C
    C   1.0     0.171939     0.438397     0.984777  Biso 1.000000     C
    C   1.0     0.983190     0.271741     0.400867  Biso 1.000000     C
    C   1.0     0.988344     0.326964     0.456418  Biso 1.000000     C
    C   1.0     0.984665     0.172158     0.439123  Biso 1.000000     C
    C   1.0     0.016956     0.599238     0.728105  Biso 1.000000     C
    C   1.0     0.011753     0.543729     0.672869  Biso 1.000000     C
    C   1.0     0.015483     0.560982     0.827742  Biso 1.000000     C
    C   1.0     0.599223     0.728643     0.016619  Biso 1.000000     C
    C   1.0     0.543490     0.673387     0.011517  Biso 1.000000     C
    C   1.0     0.560955     0.828050     0.015446  Biso 1.000000     C
    C   1.0     0.728472     0.016770     0.599710  Biso 1.000000     C
    C   1.0     0.673113     0.011550     0.544101  Biso 1.000000     C
    C   1.0     0.828029     0.015460     0.561422  Biso 1.000000     C
    C   1.0     0.599448     0.016963     0.728419  Biso 1.000000     C
    C   1.0     0.543776     0.011770     0.673097  Biso 1.000000     C
    C   1.0     0.561144     0.015694     0.827869  Biso 1.000000     C
    C   1.0     0.728278     0.599930     0.016346  Biso 1.000000     C
    C   1.0     0.672865     0.544373     0.011249  Biso 1.000000     C
    C   1.0     0.827855     0.561619     0.015065  Biso 1.000000     C
    C   1.0     0.016835     0.728320     0.599011  Biso 1.000000     C
    C   1.0     0.011651     0.673131     0.543440  Biso 1.000000     C
    C   1.0     0.015455     0.827886     0.560763  Biso 1.000000     C
    C   1.0     0.982923     0.400827     0.271776  Biso 1.000000     C
    C   1.0     0.988091     0.456371     0.326993  Biso 1.000000     C
    C   1.0     0.984345     0.439068     0.172146  Biso 1.000000     C
    C   1.0     0.400623     0.271431     0.983209  Biso 1.000000     C
    C   1.0     0.456300     0.326713     0.988370  Biso 1.000000     C
    C   1.0     0.438946     0.172025     0.984369  Biso 1.000000     C
    C   1.0     0.271667     0.983325     0.400105  Biso 1.000000     C
    C   1.0     0.327085     0.988513     0.455670  Biso 1.000000     C
    C   1.0     0.172122     0.984613     0.438440  Biso 1.000000     C
    C   1.0     0.476232     0.997035     0.475676  Biso 1.000000     C
    C   1.0     0.308309     0.980244     0.307954  Biso 1.000000     C
    C   1.0     0.420220     0.990851     0.419582  Biso 1.000000     C
    C   1.0     0.476006     0.475831     0.997066  Biso 1.000000     C
    C   1.0     0.308271     0.308012     0.980342  Biso 1.000000     C
    C   1.0     0.420068     0.419658     0.990954  Biso 1.000000     C
    C   1.0     0.996911     0.476059     0.476001  Biso 1.000000     C
    C   1.0     0.979989     0.308582     0.308620  Biso 1.000000     C
    C   1.0     0.990690     0.420081     0.420112  Biso 1.000000     C
    C   1.0     0.002956     0.524083     0.523840  Biso 1.000000     C
    C   1.0     0.019980     0.691466     0.691267  Biso 1.000000     C
    C   1.0     0.009189     0.580038     0.579745  Biso 1.000000     C
    C   1.0     0.523700     0.524279     0.002882  Biso 1.000000     C
    C   1.0     0.691576     0.692039     0.019440  Biso 1.000000     C
    C   1.0     0.579674     0.580429     0.008970  Biso 1.000000     C
    C   1.0     0.524017     0.002979     0.524002  Biso 1.000000     C
    C   1.0     0.691765     0.019872     0.691847  Biso 1.000000     C
    C   1.0     0.579980     0.009182     0.580135  Biso 1.000000     C
    O   1.0     0.521966     0.993155     0.141092  Biso 1.000000     O
    O   1.0     0.384932     0.978005     0.125285  Biso 1.000000     O
    O   1.0     0.141228     0.521341     0.993573  Biso 1.000000     O
    O   1.0     0.125155     0.384663     0.978461  Biso 1.000000     O
    O   1.0     0.994001     0.141010     0.522053  Biso 1.000000     O
    O   1.0     0.978010     0.125805     0.385273  Biso 1.000000     O
    O   1.0     0.006381     0.478034     0.858809  Biso 1.000000     O
    O   1.0     0.022035     0.614781     0.874191  Biso 1.000000     O
    O   1.0     0.477872     0.858956     0.006563  Biso 1.000000     O
    O   1.0     0.614926     0.874537     0.021896  Biso 1.000000     O
    O   1.0     0.858671     0.006734     0.478425  Biso 1.000000     O
    O   1.0     0.874864     0.021696     0.615203  Biso 1.000000     O
    O   1.0     0.478063     0.006871     0.858660  Biso 1.000000     O
    O   1.0     0.615061     0.022056     0.874506  Biso 1.000000     O
    O   1.0     0.858563     0.478676     0.006262  Biso 1.000000     O
    O   1.0     0.874640     0.615342     0.021403  Biso 1.000000     O
    O   1.0     0.006277     0.859025     0.477787  Biso 1.000000     O
    O   1.0     0.022038     0.874233     0.614654  Biso 1.000000     O
    O   1.0     0.993368     0.522038     0.141070  Biso 1.000000     O
    O   1.0     0.977868     0.385226     0.125704  Biso 1.000000     O
    O   1.0     0.522037     0.141136     0.993230  Biso 1.000000     O
    O   1.0     0.384996     0.125510     0.977928  Biso 1.000000     O
    O   1.0     0.141507     0.993284     0.521454  Biso 1.000000     O
    O   1.0     0.125269     0.978392     0.384669  Biso 1.000000     O
   Cu   1.0     0.573679     0.008347     0.008323  Biso 1.000000    Cu
   Cu   1.0     0.008493     0.573548     0.008131  Biso 1.000000    Cu
   Cu   1.0     0.008761     0.008113     0.573528  Biso 1.000000    Cu
   Cu   1.0     0.991294     0.426478     0.991753  Biso 1.000000    Cu
   Cu   1.0     0.426281     0.991728     0.991441  Biso 1.000000    Cu
   Cu   1.0     0.991406     0.991924     0.426351  Biso 1.000000    Cu
