#======================================================================

# CRYSTAL DATA

#----------------------------------------------------------------------

data_VESTA_phase_1


_pd_phase_name                         MOF
_cell_length_a                         15.33900
_cell_length_b                         15.30500
_cell_length_c                         15.33400
_cell_angle_alpha                      102.20200
_cell_angle_beta                       102.57400
_cell_angle_gamma                      102.33400
_symmetry_space_group_name_H-M         "P 1"
_symmetry_Int_Tables_number            1

loop_
_symmetry_equiv_pos_as_xyz
   "x, y, z"

loop_
   _atom_site_label
   _atom_site_occupancy
   _atom_site_fract_x
   _atom_site_fract_y
   _atom_site_fract_z
   _atom_site_adp_type
   _atom_site_B_iso_or_equiv
   _atom_site_type_symbol
    H   1.0     0.514604     0.699995     0.984605  Biso 1.000000     H
    H   1.0     0.985321     0.515454     0.700555  Biso 1.000000     H
    H   1.0     0.700430     0.985289     0.515942  Biso 1.000000     H
    H   1.0     0.299732     0.484382     0.015638  Biso 1.000000     H
    H   1.0     0.484129     0.014546     0.299603  Biso 1.000000     H
    H   1.0     0.014700     0.299664     0.485329  Biso 1.000000     H
    H   1.0     0.485353     0.299964     0.015324  Biso 1.000000     H
    H   1.0     0.014679     0.484470     0.299399  Biso 1.000000     H
    H   1.0     0.299628     0.014816     0.484037  Biso 1.000000     H
    H   1.0     0.700293     0.515564     0.984363  Biso 1.000000     H
    H   1.0     0.515799     0.985324     0.700342  Biso 1.000000     H
    H   1.0     0.985300     0.700253     0.514632  Biso 1.000000     H
    H   1.0     0.251324     0.748232     0.000015  Biso 1.000000     H
    H   1.0     0.000166     0.251368     0.748993  Biso 1.000000     H
    H   1.0     0.747768     0.000032     0.252211  Biso 1.000000     H
    H   1.0     0.748657     0.251705     0.000020  Biso 1.000000     H
    H   1.0    -0.000146     0.748573     0.250986  Biso 1.000000     H
    H   1.0     0.252183    -0.000002     0.747711  Biso 1.000000     H
    C   1.0     0.423204     0.831100     0.987887  Biso 1.000000     C
    C   1.0     0.386830     0.733773     0.992155  Biso 1.000000     C
    C   1.0     0.445114     0.674964     0.991318  Biso 1.000000     C
    C   1.0     0.988381     0.423584     0.831482  Biso 1.000000     C
    C   1.0     0.992542     0.387245     0.734358  Biso 1.000000     C
    C   1.0     0.991694     0.445717     0.675565  Biso 1.000000     C
    C   1.0     0.831085     0.988487     0.424379  Biso 1.000000     C
    C   1.0     0.733733     0.992483     0.387932  Biso 1.000000     C
    C   1.0     0.675178     0.991635     0.446171  Biso 1.000000     C
    C   1.0     0.168754     0.576080     0.012171  Biso 1.000000     C
    C   1.0     0.265901     0.612444     0.007963  Biso 1.000000     C
    C   1.0     0.324642     0.554059     0.008896  Biso 1.000000     C
    C   1.0     0.575579     0.011399     0.168883  Biso 1.000000     C
    C   1.0     0.612078     0.007416     0.266257  Biso 1.000000     C
    C   1.0     0.553887     0.008241     0.324850  Biso 1.000000     C
    C   1.0     0.011870     0.168623     0.576971  Biso 1.000000     C
    C   1.0     0.007677     0.265908     0.613326  Biso 1.000000     C
    C   1.0     0.008375     0.324748     0.554923  Biso 1.000000     C
    C   1.0     0.576744     0.168841     0.012084  Biso 1.000000     C
    C   1.0     0.613120     0.266160     0.007788  Biso 1.000000     C
    C   1.0     0.554860     0.324993     0.008649  Biso 1.000000     C
    C   1.0     0.011596     0.576346     0.168472  Biso 1.000000     C
    C   1.0     0.007472     0.612690     0.265608  Biso 1.000000     C
    C   1.0     0.008310     0.554208     0.324391  Biso 1.000000     C
    C   1.0     0.168908     0.011529     0.575538  Biso 1.000000     C
    C   1.0     0.266261     0.007547     0.612005  Biso 1.000000     C
    C   1.0     0.324842     0.008415     0.553792  Biso 1.000000     C
    C   1.0     0.831235     0.423833     0.987828  Biso 1.000000     C
    C   1.0     0.734082     0.387480     0.992019  Biso 1.000000     C
    C   1.0     0.675366     0.445888     0.991105  Biso 1.000000     C
    C   1.0     0.424335     0.988530     0.831051  Biso 1.000000     C
    C   1.0     0.387871     0.992551     0.733685  Biso 1.000000     C
    C   1.0     0.446065     0.991689     0.675096  Biso 1.000000     C
    C   1.0     0.988120     0.831302     0.422992  Biso 1.000000     C
    C   1.0     0.992345     0.734026     0.386648  Biso 1.000000     C
    C   1.0     0.991628     0.675172     0.445039  Biso 1.000000     C
    C   1.0     0.296876     0.702663     0.000066  Biso 1.000000     C
    C   1.0     0.414841     0.584533     0.000120  Biso 1.000000     C
    C   1.0     0.474276     0.525309     0.000056  Biso 1.000000     C
    C   1.0     0.000116     0.296988     0.703384  Biso 1.000000     C
    C   1.0     0.000002     0.415263     0.585232  Biso 1.000000     C
    C   1.0    -0.000027     0.474568     0.525704  Biso 1.000000     C
    C   1.0     0.702342    -0.000002     0.297661  Biso 1.000000     C
    C   1.0     0.584668    -0.000037     0.415405  Biso 1.000000     C
    C   1.0     0.525505    -0.000018     0.474572  Biso 1.000000     C
    C   1.0     0.703116     0.297285    -0.000027  Biso 1.000000     C
    C   1.0     0.585167     0.415433    -0.000123  Biso 1.000000     C
    C   1.0     0.525741     0.474666    -0.000068  Biso 1.000000     C
    C   1.0    -0.000107     0.702949     0.296590  Biso 1.000000     C
    C   1.0    -0.000003     0.584663     0.414730  Biso 1.000000     C
    C   1.0     0.000002     0.525348     0.474248  Biso 1.000000     C
    C   1.0     0.297622     0.000025     0.702273  Biso 1.000000     C
    C   1.0     0.415334     0.000064     0.584567  Biso 1.000000     C
    C   1.0     0.474507     0.000030     0.525411  Biso 1.000000     C
    O   1.0     0.501721     0.850827     0.970157  Biso 1.000000     O
    O   1.0     0.374319     0.887312     0.004495  Biso 1.000000     O
    O   1.0     0.970403     0.502165     0.851036  Biso 1.000000     O
    O   1.0     0.005231     0.374524     0.887711  Biso 1.000000     O
    O   1.0     0.851151     0.970112     0.502763  Biso 1.000000     O
    O   1.0     0.886937     0.005746     0.375446  Biso 1.000000     O
    O   1.0     0.148990     0.497438     0.030153  Biso 1.000000     O
    O   1.0     0.112664     0.625178     0.995197  Biso 1.000000     O
    O   1.0     0.497118     0.029508     0.148761  Biso 1.000000     O
    O   1.0     0.624512     0.994283     0.113057  Biso 1.000000     O
    O   1.0     0.029732     0.149137     0.498530  Biso 1.000000     O
    O   1.0     0.995212     0.112216     0.625796  Biso 1.000000     O
    O   1.0     0.498198     0.149100     0.029755  Biso 1.000000     O
    O   1.0     0.625612     0.112616     0.995451  Biso 1.000000     O
    O   1.0     0.029714     0.497834     0.148941  Biso 1.000000     O
    O   1.0     0.994571     0.625337     0.112213  Biso 1.000000     O
    O   1.0     0.148820     0.029795     0.497100  Biso 1.000000     O
    O   1.0     0.113058     0.994289     0.624476  Biso 1.000000     O
    O   1.0     0.850961     0.502385     0.969664  Biso 1.000000     O
    O   1.0     0.887346     0.374785     0.004934  Biso 1.000000     O
    O   1.0     0.502807     0.970444     0.851181  Biso 1.000000     O
    O   1.0     0.375381     0.005614     0.886863  Biso 1.000000     O
    O   1.0     0.970314     0.850799     0.501461  Biso 1.000000     O
    O   1.0     0.004694     0.887693     0.374132  Biso 1.000000     O
   Cu   1.0     0.568075     0.980033     0.980506  Biso 1.000000    Cu
   Cu   1.0     0.980166     0.568139     0.979955  Biso 1.000000    Cu
   Cu   1.0     0.980494     0.979796     0.568024  Biso 1.000000    Cu
   Cu   1.0     0.019804     0.431774     0.020003  Biso 1.000000    Cu
   Cu   1.0     0.431844     0.019893     0.019424  Biso 1.000000    Cu
   Cu   1.0     0.019475     0.020136     0.431896  Biso 1.000000    Cu
