#======================================================================

# CRYSTAL DATA

#----------------------------------------------------------------------

data_VESTA_phase_1


_pd_phase_name                         MOF
_cell_length_a                         14.25300
_cell_length_b                         15.57400
_cell_length_c                         15.57400
_cell_angle_alpha                      120.05000
_cell_angle_beta                       90.00000
_cell_angle_gamma                      90.00000
_symmetry_space_group_name_H-M         "P 1"
_symmetry_Int_Tables_number            1

loop_
_symmetry_equiv_pos_as_xyz
   "x, y, z"

loop_
   _atom_site_label
   _atom_site_occupancy
   _atom_site_fract_x
   _atom_site_fract_y
   _atom_site_fract_z
   _atom_site_adp_type
   _atom_site_B_iso_or_equiv
   _atom_site_type_symbol
    H   1.0     0.739744     0.297514     0.381110  Biso 1.000000     H
    H   1.0     0.836857     0.214580     0.356793  Biso 1.000000     H
    H   1.0     0.739011     0.083288     0.701644  Biso 1.000000     H
    H   1.0     0.836083     0.141244     0.784910  Biso 1.000000     H
    H   1.0     0.738624     0.618184     0.916999  Biso 1.000000     H
    H   1.0     0.835659     0.644033     0.859469  Biso 1.000000     H
    H   1.0     0.739772     0.702548     0.618968  Biso 1.000000     H
    H   1.0     0.836892     0.785461     0.643237  Biso 1.000000     H
    H   1.0     0.739022     0.916721     0.298361  Biso 1.000000     H
    H   1.0     0.836092     0.858751     0.215097  Biso 1.000000     H
    H   1.0     0.738616     0.381865     0.083040  Biso 1.000000     H
    H   1.0     0.835651     0.355999     0.140557  Biso 1.000000     H
    H   1.0     0.761323     0.915179     0.619427  Biso 1.000000     H
    H   1.0     0.663290     0.858427     0.644677  Biso 1.000000     H
    H   1.0     0.760191     0.379518     0.294229  Biso 1.000000     H
    H   1.0     0.662015     0.355937     0.212790  Biso 1.000000     H
    H   1.0     0.760807     0.704909     0.085002  Biso 1.000000     H
    H   1.0     0.662712     0.786703     0.142353  Biso 1.000000     H
    H   1.0     0.761302     0.084848     0.380615  Biso 1.000000     H
    H   1.0     0.663269     0.141612     0.355382  Biso 1.000000     H
    H   1.0     0.760180     0.620510     0.705806  Biso 1.000000     H
    H   1.0     0.662002     0.644083     0.787240  Biso 1.000000     H
    H   1.0     0.760810     0.295078     0.915019  Biso 1.000000     H
    H   1.0     0.662715     0.213287     0.857661  Biso 1.000000     H
    H   1.0     0.260010     0.704372     0.620117  Biso 1.000000     H
    H   1.0     0.162797     0.786857     0.643416  Biso 1.000000     H
    H   1.0     0.260762     0.916074     0.296665  Biso 1.000000     H
    H   1.0     0.163626     0.857550     0.213777  Biso 1.000000     H
    H   1.0     0.261163     0.381128     0.083879  Biso 1.000000     H
    H   1.0     0.164075     0.356087     0.141894  Biso 1.000000     H
    H   1.0     0.259990     0.295632     0.379883  Biso 1.000000     H
    H   1.0     0.162777     0.213156     0.356619  Biso 1.000000     H
    H   1.0     0.260754     0.083940     0.703331  Biso 1.000000     H
    H   1.0     0.163617     0.142458     0.786220  Biso 1.000000     H
    H   1.0     0.261136     0.618930     0.916130  Biso 1.000000     H
    H   1.0     0.164044     0.643928     0.858087  Biso 1.000000     H
    H   1.0     0.241340     0.083969     0.380755  Biso 1.000000     H
    H   1.0     0.338464     0.142399     0.356327  Biso 1.000000     H
    H   1.0     0.242603     0.620100     0.704628  Biso 1.000000     H
    H   1.0     0.339783     0.642746     0.786978  Biso 1.000000     H
    H   1.0     0.241871     0.296146     0.915772  Biso 1.000000     H
    H   1.0     0.339032     0.213476     0.856733  Biso 1.000000     H
    H   1.0     0.241325     0.916060     0.619269  Biso 1.000000     H
    H   1.0     0.338448     0.857636     0.643708  Biso 1.000000     H
    H   1.0     0.242636     0.379886     0.295337  Biso 1.000000     H
    H   1.0     0.339820     0.357297     0.213007  Biso 1.000000     H
    H   1.0     0.241893     0.703854     0.084236  Biso 1.000000     H
    H   1.0     0.339054     0.786522     0.143280  Biso 1.000000     H
    C   1.0     0.856301     0.359813     0.481921  Biso 1.000000     C
    C   1.0     0.793329     0.273070     0.415418  Biso 1.000000     C
    C   1.0     0.856153     0.121683     0.640057  Biso 1.000000     C
    C   1.0     0.792875     0.141857     0.726514  Biso 1.000000     C
    C   1.0     0.856071     0.518496     0.878559  Biso 1.000000     C
    C   1.0     0.792632     0.584760     0.858544  Biso 1.000000     C
    C   1.0     0.856303     0.640211     0.518130  Biso 1.000000     C
    C   1.0     0.793348     0.726970     0.584632  Biso 1.000000     C
    C   1.0     0.856158     0.878330     0.359959  Biso 1.000000     C
    C   1.0     0.792882     0.858149     0.273498  Biso 1.000000     C
    C   1.0     0.856070     0.481546     0.121487  Biso 1.000000     C
    C   1.0     0.792627     0.415279     0.141493  Biso 1.000000     C
    C   1.0     0.643816     0.879427     0.520211  Biso 1.000000     C
    C   1.0     0.706607     0.857550     0.585588  Biso 1.000000     C
    C   1.0     0.643648     0.479920     0.358913  Biso 1.000000     C
    C   1.0     0.705895     0.414318     0.271121  Biso 1.000000     C
    C   1.0     0.643726     0.640909     0.120652  Biso 1.000000     C
    C   1.0     0.706285     0.728416     0.142775  Biso 1.000000     C
    C   1.0     0.643809     0.120616     0.479853  Biso 1.000000     C
    C   1.0     0.706593     0.142483     0.414464  Biso 1.000000     C
    C   1.0     0.643649     0.520093     0.641118  Biso 1.000000     C
    C   1.0     0.705888     0.585706     0.728913  Biso 1.000000     C
    C   1.0     0.643724     0.359090     0.879394  Biso 1.000000     C
    C   1.0     0.706286     0.271580     0.857249  Biso 1.000000     C
    C   1.0     0.143769     0.640935     0.518960  Biso 1.000000     C
    C   1.0     0.206501     0.728190     0.585175  Biso 1.000000     C
    C   1.0     0.143885     0.878434     0.359302  Biso 1.000000     C
    C   1.0     0.206970     0.857489     0.272376  Biso 1.000000     C
    C   1.0     0.143937     0.481064     0.121645  Biso 1.000000     C
    C   1.0     0.207211     0.415068     0.142347  Biso 1.000000     C
    C   1.0     0.143766     0.359089     0.481062  Biso 1.000000     C
    C   1.0     0.206490     0.271827     0.414845  Biso 1.000000     C
    C   1.0     0.143880     0.121592     0.640701  Biso 1.000000     C
    C   1.0     0.206963     0.142526     0.727625  Biso 1.000000     C
    C   1.0     0.143932     0.518968     0.878371  Biso 1.000000     C
    C   1.0     0.207193     0.584965     0.857656  Biso 1.000000     C
    C   1.0     0.358110     0.122052     0.481297  Biso 1.000000     C
    C   1.0     0.295072     0.142631     0.415042  Biso 1.000000     C
    C   1.0     0.358356     0.518304     0.640999  Biso 1.000000     C
    C   1.0     0.295834     0.584795     0.728328  Biso 1.000000     C
    C   1.0     0.358204     0.359103     0.877741  Biso 1.000000     C
    C   1.0     0.295392     0.272034     0.856952  Biso 1.000000     C
    C   1.0     0.358108     0.877988     0.518744  Biso 1.000000     C
    C   1.0     0.295062     0.857403     0.584989  Biso 1.000000     C
    C   1.0     0.358361     0.481713     0.359008  Biso 1.000000     C
    C   1.0     0.295856     0.415223     0.271662  Biso 1.000000     C
    C   1.0     0.358213     0.640902     0.122296  Biso 1.000000     C
    C   1.0     0.295407     0.727970     0.143064  Biso 1.000000     C
    O   1.0     0.859624     0.389902     0.573724  Biso 1.000000     O
    O   1.0     0.901621     0.393640     0.434778  Biso 1.000000     O
    O   1.0     0.859580     0.183373     0.610003  Biso 1.000000     O
    O   1.0     0.901554     0.040706     0.606307  Biso 1.000000     O
    O   1.0     0.859525     0.426677     0.816782  Biso 1.000000     O
    O   1.0     0.901523     0.565777     0.959509  Biso 1.000000     O
    O   1.0     0.859616     0.610106     0.426324  Biso 1.000000     O
    O   1.0     0.901620     0.606392     0.565283  Biso 1.000000     O
    O   1.0     0.859582     0.816644     0.390020  Biso 1.000000     O
    O   1.0     0.901562     0.959304     0.393705  Biso 1.000000     O
    O   1.0     0.859531     0.573362     0.183272  Biso 1.000000     O
    O   1.0     0.901520     0.434269     0.040535  Biso 1.000000     O
    O   1.0     0.638527     0.817612     0.428496  Biso 1.000000     O
    O   1.0     0.600562     0.961760     0.567905  Biso 1.000000     O
    O   1.0     0.638535     0.571645     0.388955  Biso 1.000000     O
    O   1.0     0.600528     0.432330     0.393671  Biso 1.000000     O
    O   1.0     0.638475     0.610942     0.182339  Biso 1.000000     O
    O   1.0     0.600533     0.606198     0.038289  Biso 1.000000     O
    O   1.0     0.638526     0.182442     0.571566  Biso 1.000000     O
    O   1.0     0.600554     0.038283     0.432176  Biso 1.000000     O
    O   1.0     0.638544     0.428368     0.611079  Biso 1.000000     O
    O   1.0     0.600524     0.567674     0.606354  Biso 1.000000     O
    O   1.0     0.638463     0.389076     0.817724  Biso 1.000000     O
    O   1.0     0.600538     0.393780     0.961761  Biso 1.000000     O
    O   1.0     0.140272     0.610567     0.427116  Biso 1.000000     O
    O   1.0     0.098823     0.606961     0.566215  Biso 1.000000     O
    O   1.0     0.140277     0.816990     0.389647  Biso 1.000000     O
    O   1.0     0.098820     0.959635     0.393168  Biso 1.000000     O
    O   1.0     0.140292     0.572913     0.183229  Biso 1.000000     O
    O   1.0     0.098824     0.433697     0.040469  Biso 1.000000     O
    O   1.0     0.140270     0.389456     0.572907  Biso 1.000000     O
    O   1.0     0.098825     0.393072     0.433813  Biso 1.000000     O
    O   1.0     0.140275     0.183041     0.610363  Biso 1.000000     O
    O   1.0     0.098814     0.040391     0.606831  Biso 1.000000     O
    O   1.0     0.140292     0.427118     0.816792  Biso 1.000000     O
    O   1.0     0.098824     0.566336     0.959550  Biso 1.000000     O
    O   1.0     0.361562     0.183659     0.573133  Biso 1.000000     O
    O   1.0     0.403296     0.040906     0.434087  Biso 1.000000     O
    O   1.0     0.361679     0.426479     0.610705  Biso 1.000000     O
    O   1.0     0.403386     0.565402     0.606922  Biso 1.000000     O
    O   1.0     0.361614     0.389368     0.816240  Biso 1.000000     O
    O   1.0     0.403328     0.393110     0.958920  Biso 1.000000     O
    O   1.0     0.361561     0.816393     0.426906  Biso 1.000000     O
    O   1.0     0.403297     0.959132     0.565972  Biso 1.000000     O
    O   1.0     0.361672     0.573541     0.389317  Biso 1.000000     O
    O   1.0     0.403390     0.434609     0.393080  Biso 1.000000     O
    O   1.0     0.361625     0.610665     0.183820  Biso 1.000000     O
    O   1.0     0.403332     0.606863     0.041113  Biso 1.000000     O
    O   1.0     0.749024     0.237134     0.473210  Biso 1.000000     O
    O   1.0     0.749006     0.235901     0.762798  Biso 1.000000     O
    O   1.0     0.748976     0.526956     0.764355  Biso 1.000000     O
    O   1.0     0.749027     0.762894     0.526839  Biso 1.000000     O
    O   1.0     0.749008     0.764109     0.237227  Biso 1.000000     O
    O   1.0     0.748976     0.473077     0.235687  Biso 1.000000     O
    O   1.0     0.250954     0.763505     0.526906  Biso 1.000000     O
    O   1.0     0.250973     0.763590     0.236739  Biso 1.000000     O
    O   1.0     0.250970     0.473319     0.236419  Biso 1.000000     O
    O   1.0     0.250957     0.236526     0.473119  Biso 1.000000     O
    O   1.0     0.250969     0.236425     0.763273  Biso 1.000000     O
    O   1.0     0.250966     0.526709     0.763593  Biso 1.000000     O
   Zn   1.0     0.000344     0.500013     0.500037  Biso 1.000000    Zn
   Zn   1.0     0.000297    -0.000007     0.500005  Biso 1.000000    Zn
   Zn   1.0     0.000273     0.500023     0.000042  Biso 1.000000    Zn
   Zn   1.0     0.501788     0.000018     0.500049  Biso 1.000000    Zn
   Zn   1.0     0.501860     0.499994     0.500010  Biso 1.000000    Zn
   Zn   1.0     0.501815     0.499982     0.000055  Biso 1.000000    Zn
   La   1.0     0.748557     0.333346     0.666805  Biso 1.000000    La
   La   1.0     0.748556     0.666684     0.333246  Biso 1.000000    La
   La   1.0     0.250672     0.666828     0.333371  Biso 1.000000    La
   La   1.0     0.250673     0.333203     0.666659  Biso 1.000000    La
