#======================================================================

# CRYSTAL DATA

#----------------------------------------------------------------------

data_VESTA_phase_1


_pd_phase_name                         MOF
_cell_length_a                         13.14400
_cell_length_b                         13.01300
_cell_length_c                         23.51100
_cell_angle_alpha                      90.00000
_cell_angle_beta                       90.00000
_cell_angle_gamma                      90.00000
_symmetry_space_group_name_H-M         "P 1"
_symmetry_Int_Tables_number            1

loop_
_symmetry_equiv_pos_as_xyz
   "x, y, z"

loop_
   _atom_site_label
   _atom_site_occupancy
   _atom_site_fract_x
   _atom_site_fract_y
   _atom_site_fract_z
   _atom_site_adp_type
   _atom_site_B_iso_or_equiv
   _atom_site_type_symbol
    H   1.0     0.664355     0.626493     0.801891  Biso 1.000000     H
    H   1.0     0.663278     0.766321     0.873643  Biso 1.000000     H
    H   1.0     0.335646     0.373533     0.801891  Biso 1.000000     H
    H   1.0     0.336723     0.233705     0.873643  Biso 1.000000     H
    H   1.0     0.374267     0.666016     0.304623  Biso 1.000000     H
    H   1.0     0.233685     0.664919     0.375067  Biso 1.000000     H
    H   1.0     0.625734     0.334005     0.304624  Biso 1.000000     H
    H   1.0     0.766316     0.335104     0.375068  Biso 1.000000     H
    H   1.0     0.335646     0.626490     0.198101  Biso 1.000000     H
    H   1.0     0.336723     0.766318     0.126349  Biso 1.000000     H
    H   1.0     0.664354     0.373530     0.198101  Biso 1.000000     H
    H   1.0     0.663277     0.233702     0.126349  Biso 1.000000     H
    H   1.0     0.625734     0.666018     0.695368  Biso 1.000000     H
    H   1.0     0.766316     0.664921     0.624925  Biso 1.000000     H
    H   1.0     0.374267     0.334008     0.695368  Biso 1.000000     H
    H   1.0     0.233685     0.335107     0.624925  Biso 1.000000     H
    H   1.0     0.335647     0.373532     0.198099  Biso 1.000000     H
    H   1.0     0.336725     0.233703     0.126348  Biso 1.000000     H
    H   1.0     0.664353     0.626489     0.198099  Biso 1.000000     H
    H   1.0     0.663275     0.766317     0.126348  Biso 1.000000     H
    H   1.0     0.625721     0.334009     0.695372  Biso 1.000000     H
    H   1.0     0.766288     0.335093     0.624923  Biso 1.000000     H
    H   1.0     0.374281     0.666018     0.695373  Biso 1.000000     H
    H   1.0     0.233715     0.664934     0.624923  Biso 1.000000     H
    H   1.0     0.664354     0.373534     0.801893  Biso 1.000000     H
    H   1.0     0.663275     0.233706     0.873644  Biso 1.000000     H
    H   1.0     0.335648     0.626492     0.801893  Biso 1.000000     H
    H   1.0     0.336726     0.766320     0.873644  Biso 1.000000     H
    H   1.0     0.374279     0.334006     0.304620  Biso 1.000000     H
    H   1.0     0.233713     0.335092     0.375070  Biso 1.000000     H
    H   1.0     0.625720     0.666015     0.304619  Biso 1.000000     H
    H   1.0     0.766286     0.664931     0.375069  Biso 1.000000     H
    C   1.0     0.591811     0.656699     0.817069  Biso 1.000000     C
    C   1.0     0.592111     0.735155     0.857364  Biso 1.000000     C
    C   1.0     0.408190     0.343327     0.817069  Biso 1.000000     C
    C   1.0     0.407890     0.264871     0.857364  Biso 1.000000     C
    C   1.0     0.343914     0.592741     0.319522  Biso 1.000000     C
    C   1.0     0.265040     0.593038     0.359086  Biso 1.000000     C
    C   1.0     0.656086     0.407280     0.319522  Biso 1.000000     C
    C   1.0     0.734961     0.406985     0.359086  Biso 1.000000     C
    C   1.0     0.408190     0.656696     0.182923  Biso 1.000000     C
    C   1.0     0.407890     0.735152     0.142628  Biso 1.000000     C
    C   1.0     0.591810     0.343324     0.182923  Biso 1.000000     C
    C   1.0     0.592110     0.264868     0.142628  Biso 1.000000     C
    C   1.0     0.656087     0.592743     0.680470  Biso 1.000000     C
    C   1.0     0.734961     0.593040     0.640906  Biso 1.000000     C
    C   1.0     0.343915     0.407283     0.680470  Biso 1.000000     C
    C   1.0     0.265040     0.406988     0.640906  Biso 1.000000     C
    C   1.0     0.408191     0.343325     0.182922  Biso 1.000000     C
    C   1.0     0.407892     0.264869     0.142627  Biso 1.000000     C
    C   1.0     0.591809     0.656695     0.182922  Biso 1.000000     C
    C   1.0     0.592108     0.735151     0.142627  Biso 1.000000     C
    C   1.0     0.656077     0.407282     0.680472  Biso 1.000000     C
    C   1.0     0.734945     0.406979     0.640905  Biso 1.000000     C
    C   1.0     0.343925     0.592745     0.680472  Biso 1.000000     C
    C   1.0     0.265057     0.593049     0.640905  Biso 1.000000     C
    C   1.0     0.591810     0.343328     0.817070  Biso 1.000000     C
    C   1.0     0.592108     0.264871     0.857365  Biso 1.000000     C
    C   1.0     0.408192     0.656698     0.817070  Biso 1.000000     C
    C   1.0     0.407893     0.735154     0.857365  Biso 1.000000     C
    C   1.0     0.343924     0.407279     0.319520  Biso 1.000000     C
    C   1.0     0.265056     0.406977     0.359087  Biso 1.000000     C
    C   1.0     0.656076     0.592742     0.319520  Biso 1.000000     C
    C   1.0     0.734943     0.593046     0.359087  Biso 1.000000     C
    C   1.0     0.500001     0.615858     0.796096  Biso 1.000000     C
    C   1.0     0.500002     0.774670     0.877982  Biso 1.000000     C
    C   1.0     0.500002     0.857477     0.921977  Biso 1.000000     C
    C   1.0     0.500000     0.384168     0.796096  Biso 1.000000     C
    C   1.0     0.499999     0.225356     0.877982  Biso 1.000000     C
    C   1.0     0.499999     0.142550     0.921977  Biso 1.000000     C
    C   1.0     0.384958     0.500013     0.298911  Biso 1.000000     C
    C   1.0     0.225174     0.500006     0.379261  Biso 1.000000     C
    C   1.0     0.141794     0.499977     0.422440  Biso 1.000000     C
    C   1.0     0.615042     0.500008     0.298911  Biso 1.000000     C
    C   1.0     0.774825     0.500017     0.379261  Biso 1.000000     C
    C   1.0     0.858205     0.500048     0.422441  Biso 1.000000     C
    C   1.0     0.500000     0.615855     0.203897  Biso 1.000000     C
    C   1.0     0.499999     0.774667     0.122010  Biso 1.000000     C
    C   1.0     0.499999     0.857473     0.078015  Biso 1.000000     C
    C   1.0     0.500000     0.384165     0.203897  Biso 1.000000     C
    C   1.0     0.500001     0.225353     0.122010  Biso 1.000000     C
    C   1.0     0.500001     0.142547     0.078015  Biso 1.000000     C
    C   1.0     0.615042     0.500015     0.701081  Biso 1.000000     C
    C   1.0     0.774826     0.500008     0.620731  Biso 1.000000     C
    C   1.0     0.858207     0.499979     0.577552  Biso 1.000000     C
    C   1.0     0.384959     0.500011     0.701081  Biso 1.000000     C
    C   1.0     0.225176     0.500020     0.620731  Biso 1.000000     C
    C   1.0     0.141796     0.500050     0.577551  Biso 1.000000     C
    O   1.0     0.586581     0.889838     0.939277  Biso 1.000000     O
    O   1.0     0.413421     0.110189     0.939277  Biso 1.000000     O
    O   1.0     0.109121     0.587395     0.439403  Biso 1.000000     O
    O   1.0     0.890879     0.412631     0.439403  Biso 1.000000     O
    O   1.0     0.413421     0.889835     0.060715  Biso 1.000000     O
    O   1.0     0.586579     0.110185     0.060715  Biso 1.000000     O
    O   1.0     0.890879     0.587397     0.560589  Biso 1.000000     O
    O   1.0     0.109125     0.412632     0.560588  Biso 1.000000     O
    O   1.0     0.413421     0.110182     0.060718  Biso 1.000000     O
    O   1.0     0.586579     0.889838     0.060718  Biso 1.000000     O
    O   1.0     0.890568     0.412522     0.560480  Biso 1.000000     O
    O   1.0     0.109435     0.587506     0.560479  Biso 1.000000     O
    O   1.0     0.586578     0.110185     0.939274  Biso 1.000000     O
    O   1.0     0.413423     0.889841     0.939274  Biso 1.000000     O
    O   1.0     0.109434     0.412521     0.439513  Biso 1.000000     O
    O   1.0     0.890565     0.587505     0.439513  Biso 1.000000     O
   Si   1.0     0.500001     0.500013     0.748453  Biso 1.000000    Si
   Si   1.0     0.500000     0.500010     0.251539  Biso 1.000000    Si
   Zn   1.0     0.596688    -0.000000    -0.000000  Biso 1.000000    Zn
   Zn   1.0     0.403310     0.000000     0.000000  Biso 1.000000    Zn
   Zn   1.0     0.000001     0.598418     0.499996  Biso 1.000000    Zn
   Zn   1.0     0.000001     0.401619     0.499996  Biso 1.000000    Zn
