#======================================================================

# CRYSTAL DATA

#----------------------------------------------------------------------

data_VESTA_phase_1


_pd_phase_name                         MOF
_cell_length_a                         18.13100
_cell_length_b                         16.76800
_cell_length_c                         16.76800
_cell_angle_alpha                      90.00000
_cell_angle_beta                       90.00000
_cell_angle_gamma                      90.00000
_symmetry_space_group_name_H-M         "P 1"
_symmetry_Int_Tables_number            1

loop_
_symmetry_equiv_pos_as_xyz
   "x, y, z"

loop_
   _atom_site_label
   _atom_site_occupancy
   _atom_site_fract_x
   _atom_site_fract_y
   _atom_site_fract_z
   _atom_site_adp_type
   _atom_site_B_iso_or_equiv
   _atom_site_type_symbol
    H   1.0     0.016558     0.997536     0.089347  Biso 1.000000     H
    H   1.0     0.525673     0.997602     0.089364  Biso 1.000000     H
    H   1.0     0.403467     0.168131     0.435320  Biso 1.000000     H
    H   1.0     0.912550     0.168130     0.435310  Biso 1.000000     H
    H   1.0     0.016963     0.038756     0.948067  Biso 1.000000     H
    H   1.0     0.526120     0.038749     0.948085  Biso 1.000000     H
    H   1.0     0.401640     0.867128     0.600692  Biso 1.000000     H
    H   1.0     0.910736     0.867141     0.600646  Biso 1.000000     H
    H   1.0     0.017601     0.948713     0.997720  Biso 1.000000     H
    H   1.0     0.527102     0.948411     0.997844  Biso 1.000000     H
    H   1.0     0.402166     0.601513     0.168185  Biso 1.000000     H
    H   1.0     0.911222     0.601453     0.168196  Biso 1.000000     H
    H   1.0     0.016875     0.087488     0.038922  Biso 1.000000     H
    H   1.0     0.526045     0.087389     0.038981  Biso 1.000000     H
    H   1.0     0.403787     0.433243     0.867600  Biso 1.000000     H
    H   1.0     0.912849     0.433264     0.867617  Biso 1.000000     H
    H   1.0     0.269853     0.978634     0.947650  Biso 1.000000     H
    H   1.0     0.778880     0.978608     0.947679  Biso 1.000000     H
    H   1.0     0.142337     0.165007     0.586941  Biso 1.000000     H
    H   1.0     0.651423     0.164999     0.586960  Biso 1.000000     H
    H   1.0     0.270098     0.057301     0.088263  Biso 1.000000     H
    H   1.0     0.779204     0.057286     0.088269  Biso 1.000000     H
    H   1.0     0.140026     0.870423     0.449449  Biso 1.000000     H
    H   1.0     0.649133     0.870414     0.449479  Biso 1.000000     H
    H   1.0     0.268785     0.948750     0.059132  Biso 1.000000     H
    H   1.0     0.777862     0.948734     0.059196  Biso 1.000000     H
    H   1.0     0.141688     0.586948     0.870757  Biso 1.000000     H
    H   1.0     0.650660     0.586947     0.870725  Biso 1.000000     H
    H   1.0     0.272841     0.088897     0.978265  Biso 1.000000     H
    H   1.0     0.781980     0.088881     0.978259  Biso 1.000000     H
    H   1.0     0.141160     0.449248     0.165426  Biso 1.000000     H
    H   1.0     0.650243     0.449214     0.165425  Biso 1.000000     H
    H   1.0     0.483208     0.302827     0.183925  Biso 1.000000     H
    H   1.0     0.992339     0.303062     0.184051  Biso 1.000000     H
    H   1.0     0.492752     0.383503     0.116579  Biso 1.000000     H
    H   1.0     0.000000     0.383856     0.116816  Biso 1.000000     H
    H   1.0     0.366202     0.431326     0.153350  Biso 1.000000     H
    H   1.0     0.875110     0.431352     0.153586  Biso 1.000000     H
    H   1.0     0.297585     0.315990     0.100899  Biso 1.000000     H
    H   1.0     0.806701     0.316012     0.100944  Biso 1.000000     H
    H   1.0     0.364846     0.353734     0.044297  Biso 1.000000     H
    H   1.0     0.873989     0.353831     0.044427  Biso 1.000000     H
    H   1.0     0.379614     0.266001     0.090818  Biso 1.000000     H
    H   1.0     0.888767     0.266092     0.090910  Biso 1.000000     H
    H   1.0     0.360037     0.281681     0.257434  Biso 1.000000     H
    H   1.0     0.869147     0.281569     0.257489  Biso 1.000000     H
    H   1.0     0.285281     0.346237     0.236460  Biso 1.000000     H
    H   1.0     0.794306     0.346023     0.236569  Biso 1.000000     H
    H   1.0     0.044155     0.412304     0.248494  Biso 1.000000     H
    H   1.0     0.553445     0.411964     0.248213  Biso 1.000000     H
    H   1.0     0.483513     0.481322     0.225388  Biso 1.000000     H
    H   1.0     0.992269     0.481505     0.225759  Biso 1.000000     H
    H   1.0     0.471706     0.441141     0.366989  Biso 1.000000     H
    H   1.0     0.980543     0.441079     0.367306  Biso 1.000000     H
    H   1.0     0.471577     0.339190     0.340492  Biso 1.000000     H
    H   1.0     0.980596     0.339170     0.340644  Biso 1.000000     H
    H   1.0     0.344200     0.381666     0.367845  Biso 1.000000     H
    H   1.0     0.853132     0.381375     0.368026  Biso 1.000000     H
    H   1.0     0.351225     0.460607     0.298574  Biso 1.000000     H
    H   1.0     0.860056     0.460424     0.298869  Biso 1.000000     H
    H   1.0     0.483434     0.732242     0.850518  Biso 1.000000     H
    H   1.0     0.992426     0.732924     0.850555  Biso 1.000000     H
    H   1.0     0.492771     0.651891     0.918291  Biso 1.000000     H
    H   1.0     0.000000     0.652811     0.918523  Biso 1.000000     H
    H   1.0     0.365633     0.604924     0.882459  Biso 1.000000     H
    H   1.0     0.875334     0.604927     0.882793  Biso 1.000000     H
    H   1.0     0.297988     0.720462     0.935206  Biso 1.000000     H
    H   1.0     0.807096     0.720399     0.935162  Biso 1.000000     H
    H   1.0     0.365465     0.682502     0.991428  Biso 1.000000     H
    H   1.0     0.874553     0.682644     0.991548  Biso 1.000000     H
    H   1.0     0.380104     0.770272     0.944776  Biso 1.000000     H
    H   1.0     0.889122     0.770405     0.944868  Biso 1.000000     H
    H   1.0     0.360228     0.754252     0.777885  Biso 1.000000     H
    H   1.0     0.869173     0.753986     0.777884  Biso 1.000000     H
    H   1.0     0.284875     0.690854     0.799820  Biso 1.000000     H
    H   1.0     0.794129     0.690209     0.799971  Biso 1.000000     H
    H   1.0     0.043634     0.622730     0.786666  Biso 1.000000     H
    H   1.0     0.552228     0.621688     0.786397  Biso 1.000000     H
    H   1.0     0.481769     0.553421     0.810405  Biso 1.000000     H
    H   1.0     0.991811     0.554005     0.810887  Biso 1.000000     H
    H   1.0     0.469232     0.592234     0.668643  Biso 1.000000     H
    H   1.0     0.978972     0.592346     0.669036  Biso 1.000000     H
    H   1.0     0.470563     0.694480     0.693904  Biso 1.000000     H
    H   1.0     0.979760     0.694670     0.694007  Biso 1.000000     H
    H   1.0     0.342479     0.653772     0.668216  Biso 1.000000     H
    H   1.0     0.851901     0.653143     0.668452  Biso 1.000000     H
    H   1.0     0.349006     0.575215     0.737965  Biso 1.000000     H
    H   1.0     0.858829     0.574793     0.738397  Biso 1.000000     H
    H   1.0     0.481497     0.850105     0.302580  Biso 1.000000     H
    H   1.0     0.990679     0.850222     0.302779  Biso 1.000000     H
    H   1.0     0.491815     0.917808     0.382834  Biso 1.000000     H
    H   1.0     0.000000     0.917763     0.383217  Biso 1.000000     H
    H   1.0     0.365162     0.881999     0.431458  Biso 1.000000     H
    H   1.0     0.873929     0.881747     0.431315  Biso 1.000000     H
    H   1.0     0.296375     0.934582     0.316287  Biso 1.000000     H
    H   1.0     0.805444     0.934640     0.316217  Biso 1.000000     H
    H   1.0     0.363917     0.990975     0.353865  Biso 1.000000     H
    H   1.0     0.873022     0.990922     0.353878  Biso 1.000000     H
    H   1.0     0.378392     0.944487     0.266139  Biso 1.000000     H
    H   1.0     0.887487     0.944512     0.266108  Biso 1.000000     H
    H   1.0     0.358108     0.777586     0.282107  Biso 1.000000     H
    H   1.0     0.867410     0.777660     0.281706  Biso 1.000000     H
    H   1.0     0.283451     0.799440     0.346508  Biso 1.000000     H
    H   1.0     0.792533     0.799313     0.345871  Biso 1.000000     H
    H   1.0     0.042290     0.785772     0.412222  Biso 1.000000     H
    H   1.0     0.551602     0.785824     0.411894  Biso 1.000000     H
    H   1.0     0.482044     0.809707     0.481315  Biso 1.000000     H
    H   1.0     0.990699     0.809453     0.481433  Biso 1.000000     H
    H   1.0     0.468937     0.668014     0.442272  Biso 1.000000     H
    H   1.0     0.977804     0.667835     0.442057  Biso 1.000000     H
    H   1.0     0.468953     0.693622     0.340094  Biso 1.000000     H
    H   1.0     0.978124     0.693645     0.339935  Biso 1.000000     H
    H   1.0     0.341425     0.667795     0.382739  Biso 1.000000     H
    H   1.0     0.850490     0.667640     0.382042  Biso 1.000000     H
    H   1.0     0.348959     0.737491     0.461245  Biso 1.000000     H
    H   1.0     0.857715     0.737172     0.460725  Biso 1.000000     H
    H   1.0     0.484472     0.184003     0.732494  Biso 1.000000     H
    H   1.0     0.993469     0.184172     0.732703  Biso 1.000000     H
    H   1.0     0.493681     0.116851     0.651598  Biso 1.000000     H
    H   1.0     0.000000     0.116825     0.652021  Biso 1.000000     H
    H   1.0     0.366822     0.153936     0.604570  Biso 1.000000     H
    H   1.0     0.876308     0.153691     0.604360  Biso 1.000000     H
    H   1.0     0.298786     0.100624     0.719821  Biso 1.000000     H
    H   1.0     0.807898     0.100756     0.719685  Biso 1.000000     H
    H   1.0     0.366074     0.044313     0.681615  Biso 1.000000     H
    H   1.0     0.875145     0.044300     0.681593  Biso 1.000000     H
    H   1.0     0.381000     0.090381     0.769471  Biso 1.000000     H
    H   1.0     0.890080     0.090456     0.769399  Biso 1.000000     H
    H   1.0     0.361706     0.257121     0.754885  Biso 1.000000     H
    H   1.0     0.870582     0.257265     0.754378  Biso 1.000000     H
    H   1.0     0.286415     0.236452     0.691002  Biso 1.000000     H
    H   1.0     0.795540     0.236370     0.690221  Biso 1.000000     H
    H   1.0     0.045226     0.248536     0.623323  Biso 1.000000     H
    H   1.0     0.554065     0.248575     0.622949  Biso 1.000000     H
    H   1.0     0.483728     0.225808     0.554081  Biso 1.000000     H
    H   1.0     0.993373     0.225538     0.554189  Biso 1.000000     H
    H   1.0     0.471924     0.367252     0.594387  Biso 1.000000     H
    H   1.0     0.981323     0.367074     0.594097  Biso 1.000000     H
    H   1.0     0.472799     0.340848     0.696342  Biso 1.000000     H
    H   1.0     0.981830     0.340915     0.696124  Biso 1.000000     H
    H   1.0     0.345043     0.368018     0.655560  Biso 1.000000     H
    H   1.0     0.854204     0.367892     0.654699  Biso 1.000000     H
    H   1.0     0.351273     0.299087     0.576251  Biso 1.000000     H
    H   1.0     0.860787     0.298763     0.575595  Biso 1.000000     H
    H   1.0     0.236234     0.311119     0.846355  Biso 1.000000     H
    H   1.0     0.745520     0.311212     0.846608  Biso 1.000000     H
    H   1.0     0.240460     0.390328     0.915837  Biso 1.000000     H
    H   1.0     0.749417     0.390661     0.915851  Biso 1.000000     H
    H   1.0     0.110579     0.427810     0.884051  Biso 1.000000     H
    H   1.0     0.619498     0.427643     0.883685  Biso 1.000000     H
    H   1.0     0.050300     0.311074     0.934762  Biso 1.000000     H
    H   1.0     0.559425     0.311011     0.934733  Biso 1.000000     H
    H   1.0     0.123912     0.337459     0.987060  Biso 1.000000     H
    H   1.0     0.632999     0.337559     0.987004  Biso 1.000000     H
    H   1.0     0.129852     0.256625     0.924885  Biso 1.000000     H
    H   1.0     0.639006     0.256601     0.924979  Biso 1.000000     H
    H   1.0     0.113275     0.283752     0.772029  Biso 1.000000     H
    H   1.0     0.622817     0.283246     0.772110  Biso 1.000000     H
    H   1.0     0.034879     0.341695     0.796615  Biso 1.000000     H
    H   1.0     0.544190     0.340961     0.796359  Biso 1.000000     H
    H   1.0     0.298398     0.426729     0.784751  Biso 1.000000     H
    H   1.0     0.807489     0.426821     0.784768  Biso 1.000000     H
    H   1.0     0.224618     0.490183     0.809847  Biso 1.000000     H
    H   1.0     0.733514     0.490129     0.809542  Biso 1.000000     H
    H   1.0     0.214256     0.453177     0.667366  Biso 1.000000     H
    H   1.0     0.723469     0.452694     0.667154  Biso 1.000000     H
    H   1.0     0.219959     0.350644     0.691031  Biso 1.000000     H
    H   1.0     0.729406     0.350245     0.691115  Biso 1.000000     H
    H   1.0     0.089910     0.386274     0.666179  Biso 1.000000     H
    H   1.0     0.599318     0.385369     0.665905  Biso 1.000000     H
    H   1.0     0.093704     0.463018     0.738210  Biso 1.000000     H
    H   1.0     0.602761     0.462340     0.737714  Biso 1.000000     H
    H   1.0     0.233795     0.724924     0.192155  Biso 1.000000     H
    H   1.0     0.742768     0.724851     0.192354  Biso 1.000000     H
    H   1.0     0.238626     0.645861     0.122466  Biso 1.000000     H
    H   1.0     0.747799     0.645892     0.122565  Biso 1.000000     H
    H   1.0     0.108518     0.608166     0.153235  Biso 1.000000     H
    H   1.0     0.617730     0.607910     0.153106  Biso 1.000000     H
    H   1.0     0.048423     0.725142     0.102567  Biso 1.000000     H
    H   1.0     0.557496     0.724994     0.102620  Biso 1.000000     H
    H   1.0     0.122082     0.698589     0.050330  Biso 1.000000     H
    H   1.0     0.631152     0.698438     0.050353  Biso 1.000000     H
    H   1.0     0.128129     0.779351     0.112632  Biso 1.000000     H
    H   1.0     0.637223     0.779153     0.112707  Biso 1.000000     H
    H   1.0     0.110621     0.751947     0.265629  Biso 1.000000     H
    H   1.0     0.619419     0.751518     0.265719  Biso 1.000000     H
    H   1.0     0.032257     0.694287     0.240256  Biso 1.000000     H
    H   1.0     0.541216     0.693679     0.240169  Biso 1.000000     H
    H   1.0     0.295637     0.609025     0.253886  Biso 1.000000     H
    H   1.0     0.804743     0.608980     0.253991  Biso 1.000000     H
    H   1.0     0.222051     0.545684     0.227901  Biso 1.000000     H
    H   1.0     0.731280     0.545539     0.227845  Biso 1.000000     H
    H   1.0     0.210571     0.581886     0.370394  Biso 1.000000     H
    H   1.0     0.719620     0.581538     0.370379  Biso 1.000000     H
    H   1.0     0.216556     0.684564     0.347447  Biso 1.000000     H
    H   1.0     0.725443     0.684257     0.347566  Biso 1.000000     H
    H   1.0     0.086322     0.649042     0.370912  Biso 1.000000     H
    H   1.0     0.595243     0.648422     0.370835  Biso 1.000000     H
    H   1.0     0.090521     0.572597     0.298609  Biso 1.000000     H
    H   1.0     0.599665     0.572076     0.298442  Biso 1.000000     H
    H   1.0     0.234023     0.845427     0.725217  Biso 1.000000     H
    H   1.0     0.743227     0.845701     0.725424  Biso 1.000000     H
    H   1.0     0.238601     0.914921     0.645999  Biso 1.000000     H
    H   1.0     0.747582     0.915094     0.646103  Biso 1.000000     H
    H   1.0     0.108826     0.883417     0.608070  Biso 1.000000     H
    H   1.0     0.617804     0.883211     0.608402  Biso 1.000000     H
    H   1.0     0.048247     0.933379     0.725089  Biso 1.000000     H
    H   1.0     0.557297     0.933440     0.725240  Biso 1.000000     H
    H   1.0     0.121427     0.986270     0.698464  Biso 1.000000     H
    H   1.0     0.630503     0.986296     0.698636  Biso 1.000000     H
    H   1.0     0.128007     0.924086     0.779312  Biso 1.000000     H
    H   1.0     0.637010     0.924202     0.779556  Biso 1.000000     H
    H   1.0     0.110791     0.771062     0.751875  Biso 1.000000     H
    H   1.0     0.620242     0.771180     0.752461  Biso 1.000000     H
    H   1.0     0.032700     0.795909     0.693534  Biso 1.000000     H
    H   1.0     0.541971     0.795727     0.694277  Biso 1.000000     H
    H   1.0     0.296573     0.783783     0.609857  Biso 1.000000     H
    H   1.0     0.805723     0.784010     0.610056  Biso 1.000000     H
    H   1.0     0.223070     0.808988     0.546087  Biso 1.000000     H
    H   1.0     0.732081     0.808974     0.546370  Biso 1.000000     H
    H   1.0     0.212475     0.666473     0.583037  Biso 1.000000     H
    H   1.0     0.721771     0.666497     0.583569  Biso 1.000000     H
    H   1.0     0.217635     0.690174     0.685608  Biso 1.000000     H
    H   1.0     0.727087     0.690374     0.686090  Biso 1.000000     H
    H   1.0     0.087729     0.665459     0.649016  Biso 1.000000     H
    H   1.0     0.597161     0.665321     0.649853  Biso 1.000000     H
    H   1.0     0.092074     0.737628     0.572434  Biso 1.000000     H
    H   1.0     0.601215     0.737362     0.573129  Biso 1.000000     H
    H   1.0     0.236070     0.190997     0.312255  Biso 1.000000     H
    H   1.0     0.745155     0.190986     0.312391  Biso 1.000000     H
    H   1.0     0.240419     0.121345     0.391379  Biso 1.000000     H
    H   1.0     0.749405     0.121365     0.391551  Biso 1.000000     H
    H   1.0     0.110410     0.152678     0.428742  Biso 1.000000     H
    H   1.0     0.619341     0.152688     0.428692  Biso 1.000000     H
    H   1.0     0.050283     0.102253     0.311715  Biso 1.000000     H
    H   1.0     0.559379     0.102169     0.311659  Biso 1.000000     H
    H   1.0     0.123828     0.049742     0.338267  Biso 1.000000     H
    H   1.0     0.632940     0.049712     0.338265  Biso 1.000000     H
    H   1.0     0.129975     0.112044     0.257547  Biso 1.000000     H
    H   1.0     0.639090     0.112002     0.257533  Biso 1.000000     H
    H   1.0     0.113076     0.264988     0.284909  Biso 1.000000     H
    H   1.0     0.622196     0.264933     0.284816  Biso 1.000000     H
    H   1.0     0.034598     0.239973     0.342564  Biso 1.000000     H
    H   1.0     0.543633     0.239914     0.342329  Biso 1.000000     H
    H   1.0     0.297877     0.252544     0.428290  Biso 1.000000     H
    H   1.0     0.806775     0.252589     0.428525  Biso 1.000000     H
    H   1.0     0.224039     0.226940     0.491440  Biso 1.000000     H
    H   1.0     0.732847     0.226983     0.491547  Biso 1.000000     H
    H   1.0     0.213265     0.369465     0.455063  Biso 1.000000     H
    H   1.0     0.722089     0.369489     0.455123  Biso 1.000000     H
    H   1.0     0.219345     0.346355     0.352425  Biso 1.000000     H
    H   1.0     0.728327     0.346364     0.352500  Biso 1.000000     H
    H   1.0     0.089102     0.370490     0.387622  Biso 1.000000     H
    H   1.0     0.598037     0.370464     0.387453  Biso 1.000000     H
    H   1.0     0.092904     0.298280     0.464195  Biso 1.000000     H
    H   1.0     0.601728     0.298278     0.464052  Biso 1.000000     H
    C   1.0     0.466777     0.365129     0.172916  Biso 1.000000     C
    C   1.0     0.975794     0.365342     0.173118  Biso 1.000000     C
    C   1.0     0.382941     0.369601     0.166461  Biso 1.000000     C
    C   1.0     0.891951     0.369646     0.166634  Biso 1.000000     C
    C   1.0     0.345491     0.344101     0.243892  Biso 1.000000     C
    C   1.0     0.854518     0.343982     0.244023  Biso 1.000000     C
    C   1.0     0.493356     0.418487     0.241506  Biso 1.000000     C
    C   1.0     0.000000     0.418672     0.241786  Biso 1.000000     C
    C   1.0     0.454457     0.398897     0.320263  Biso 1.000000     C
    C   1.0     0.963379     0.398876     0.320506  Biso 1.000000     C
    C   1.0     0.370434     0.399450     0.311467  Biso 1.000000     C
    C   1.0     0.879356     0.399282     0.311683  Biso 1.000000     C
    C   1.0     0.466530     0.670177     0.862075  Biso 1.000000     C
    C   1.0     0.975879     0.670775     0.862262  Biso 1.000000     C
    C   1.0     0.382706     0.666496     0.869146  Biso 1.000000     C
    C   1.0     0.892079     0.666577     0.869347  Biso 1.000000     C
    C   1.0     0.345045     0.692114     0.791887  Biso 1.000000     C
    C   1.0     0.854290     0.691794     0.792033  Biso 1.000000     C
    C   1.0     0.492120     0.615991     0.793662  Biso 1.000000     C
    C   1.0     0.000000     0.616604     0.793973  Biso 1.000000     C
    C   1.0     0.452872     0.635274     0.715021  Biso 1.000000     C
    C   1.0     0.962388     0.635416     0.715293  Biso 1.000000     C
    C   1.0     0.368898     0.635989     0.724489  Biso 1.000000     C
    C   1.0     0.878413     0.635650     0.724767  Biso 1.000000     C
    C   1.0     0.465346     0.861604     0.364880  Biso 1.000000     C
    C   1.0     0.974331     0.861579     0.365045  Biso 1.000000     C
    C   1.0     0.381574     0.868716     0.369669  Biso 1.000000     C
    C   1.0     0.890541     0.868617     0.369554  Biso 1.000000     C
    C   1.0     0.343601     0.791500     0.344460  Biso 1.000000     C
    C   1.0     0.852695     0.791428     0.344033  Biso 1.000000     C
    C   1.0     0.491581     0.793103     0.418555  Biso 1.000000     C
    C   1.0     0.000000     0.792988     0.418674  Biso 1.000000     C
    C   1.0     0.452043     0.714539     0.399639  Biso 1.000000     C
    C   1.0     0.961015     0.714433     0.399457  Biso 1.000000     C
    C   1.0     0.368081     0.724046     0.400175  Biso 1.000000     C
    C   1.0     0.877045     0.723876     0.399698  Biso 1.000000     C
    C   1.0     0.467735     0.173097     0.670267  Biso 1.000000     C
    C   1.0     0.976970     0.173100     0.670432  Biso 1.000000     C
    C   1.0     0.383879     0.166613     0.666291  Biso 1.000000     C
    C   1.0     0.893133     0.166543     0.666118  Biso 1.000000     C
    C   1.0     0.346639     0.243895     0.692545  Biso 1.000000     C
    C   1.0     0.855752     0.243866     0.692005  Biso 1.000000     C
    C   1.0     0.493937     0.241828     0.616870  Biso 1.000000     C
    C   1.0     0.000000     0.241723     0.616983  Biso 1.000000     C
    C   1.0     0.455120     0.320535     0.636857  Biso 1.000000     C
    C   1.0     0.964388     0.320449     0.636608  Biso 1.000000     C
    C   1.0     0.371088     0.311714     0.637238  Biso 1.000000     C
    C   1.0     0.880361     0.311564     0.636636  Biso 1.000000     C
    C   1.0     0.215487     0.371484     0.859130  Biso 1.000000     C
    C   1.0     0.724596     0.371553     0.859156  Biso 1.000000     C
    C   1.0     0.131630     0.368769     0.866630  Biso 1.000000     C
    C   1.0     0.640732     0.368610     0.866493  Biso 1.000000     C
    C   1.0     0.094998     0.344326     0.788484  Biso 1.000000     C
    C   1.0     0.604315     0.343798     0.788346  Biso 1.000000     C
    C   1.0     0.238068     0.428660     0.791994  Biso 1.000000     C
    C   1.0     0.747143     0.428594     0.791892  Biso 1.000000     C
    C   1.0     0.199783     0.408611     0.713026  Biso 1.000000     C
    C   1.0     0.709040     0.408208     0.712908  Biso 1.000000     C
    C   1.0     0.115933     0.403674     0.722780  Biso 1.000000     C
    C   1.0     0.625189     0.403025     0.722509  Biso 1.000000     C
    C   1.0     0.213226     0.664559     0.179007  Biso 1.000000     C
    C   1.0     0.722312     0.664463     0.179102  Biso 1.000000     C
    C   1.0     0.129409     0.667209     0.170875  Biso 1.000000     C
    C   1.0     0.638500     0.666963     0.170868  Biso 1.000000     C
    C   1.0     0.092312     0.691477     0.248833  Biso 1.000000     C
    C   1.0     0.601268     0.691021     0.248816  Biso 1.000000     C
    C   1.0     0.235361     0.607135     0.246121  Biso 1.000000     C
    C   1.0     0.744477     0.606990     0.246162  Biso 1.000000     C
    C   1.0     0.196506     0.626759     0.324884  Biso 1.000000     C
    C   1.0     0.705516     0.626437     0.324908  Biso 1.000000     C
    C   1.0     0.112734     0.631837     0.314461  Biso 1.000000     C
    C   1.0     0.621745     0.631347     0.314394  Biso 1.000000     C
    C   1.0     0.213521     0.858238     0.664758  Biso 1.000000     C
    C   1.0     0.722623     0.858388     0.664980  Biso 1.000000     C
    C   1.0     0.129660     0.865820     0.667148  Biso 1.000000     C
    C   1.0     0.638753     0.865802     0.667491  Biso 1.000000     C
    C   1.0     0.092816     0.787661     0.691232  Biso 1.000000     C
    C   1.0     0.602100     0.787615     0.691832  Biso 1.000000     C
    C   1.0     0.236261     0.791098     0.607663  Biso 1.000000     C
    C   1.0     0.745395     0.791206     0.607951  Biso 1.000000     C
    C   1.0     0.197813     0.712168     0.627492  Biso 1.000000     C
    C   1.0     0.707114     0.712231     0.627985  Biso 1.000000     C
    C   1.0     0.113955     0.722037     0.631889  Biso 1.000000     C
    C   1.0     0.623244     0.721927     0.632561  Biso 1.000000     C
    C   1.0     0.215297     0.177987     0.372576  Biso 1.000000     C
    C   1.0     0.724299     0.177993     0.372683  Biso 1.000000     C
    C   1.0     0.131454     0.170234     0.369737  Biso 1.000000     C
    C   1.0     0.640463     0.170216     0.369712  Biso 1.000000     C
    C   1.0     0.094679     0.248330     0.345388  Biso 1.000000     C
    C   1.0     0.603706     0.248291     0.345266  Biso 1.000000     C
    C   1.0     0.237567     0.245050     0.430011  Biso 1.000000     C
    C   1.0     0.746465     0.245079     0.430137  Biso 1.000000     C
    C   1.0     0.199080     0.323974     0.410214  Biso 1.000000     C
    C   1.0     0.707985     0.323986     0.410257  Biso 1.000000     C
    C   1.0     0.115268     0.313946     0.404971  Biso 1.000000     C
    C   1.0     0.624184     0.313932     0.404866  Biso 1.000000     C
    N   1.0     0.354814     0.321855     0.097013  Biso 1.000000     N
    N   1.0     0.863929     0.321925     0.097122  Biso 1.000000     N
    N   1.0     0.355220     0.714438     0.938783  Biso 1.000000     N
    N   1.0     0.864339     0.714517     0.938865  Biso 1.000000     N
    N   1.0     0.353640     0.938298     0.322021  Biso 1.000000     N
    N   1.0     0.862709     0.938289     0.321975  Biso 1.000000     N
    N   1.0     0.355991     0.096884     0.713726  Biso 1.000000     N
    N   1.0     0.865106     0.096926     0.713632  Biso 1.000000     N
    N   1.0     0.108024     0.313732     0.932431  Biso 1.000000     N
    N   1.0     0.617146     0.313707     0.932413  Biso 1.000000     N
    N   1.0     0.106138     0.722302     0.104955  Biso 1.000000     N
    N   1.0     0.615218     0.722118     0.105000  Biso 1.000000     N
    N   1.0     0.105957     0.931512     0.722267  Biso 1.000000     N
    N   1.0     0.615007     0.931572     0.722484  Biso 1.000000     N
    N   1.0     0.108001     0.104431     0.314596  Biso 1.000000     N
    N   1.0     0.617092     0.104384     0.314570  Biso 1.000000     N
    O   1.0     0.436459     0.000000     0.192838  Biso 1.000000     O
    O   1.0     0.945552     0.000000     0.192827  Biso 1.000000     O
    O   1.0     0.498221     0.873605     0.151667  Biso 1.000000     O
    O   1.0     0.000000     0.873553     0.151672  Biso 1.000000     O
    O   1.0     0.064096     0.983794     0.220605  Biso 1.000000     O
    O   1.0     0.573215     0.983832     0.220621  Biso 1.000000     O
    O   1.0     0.499667     0.085636     0.476332  Biso 1.000000     O
    O   1.0     0.000000     0.085649     0.476327  Biso 1.000000     O
    O   1.0     0.461415     0.096375     0.330295  Biso 1.000000     O
    O   1.0     0.970517     0.096380     0.330291  Biso 1.000000     O
    O   1.0     0.372579     0.030927     0.428192  Biso 1.000000     O
    O   1.0     0.881681     0.030922     0.428190  Biso 1.000000     O
    O   1.0     0.438709     0.031703     0.842888  Biso 1.000000     O
    O   1.0     0.947788     0.031741     0.842839  Biso 1.000000     O
    O   1.0     0.500083     0.162320     0.884223  Biso 1.000000     O
    O   1.0     0.000000     0.162334     0.884220  Biso 1.000000     O
    O   1.0     0.066902     0.051292     0.817803  Biso 1.000000     O
    O   1.0     0.576001     0.051296     0.817799  Biso 1.000000     O
    O   1.0     0.497829     0.949479     0.559338  Biso 1.000000     O
    O   1.0     0.000000     0.949490     0.559321  Biso 1.000000     O
    O   1.0     0.459772     0.939022     0.705470  Biso 1.000000     O
    O   1.0     0.968875     0.939016     0.705445  Biso 1.000000     O
    O   1.0     0.370858     0.000000     0.607524  Biso 1.000000     O
    O   1.0     0.879957     0.000000     0.607517  Biso 1.000000     O
    O   1.0     0.437545     0.845280     0.000000  Biso 1.000000     O
    O   1.0     0.946599     0.845265     0.000000  Biso 1.000000     O
    O   1.0     0.499438     0.886300     0.873819  Biso 1.000000     O
    O   1.0     0.000000     0.886305     0.873811  Biso 1.000000     O
    O   1.0     0.065183     0.817521     0.984114  Biso 1.000000     O
    O   1.0     0.574259     0.817134     0.984032  Biso 1.000000     O
    O   1.0     0.498299     0.560096     0.085752  Biso 1.000000     O
    O   1.0     0.000000     0.559942     0.085784  Biso 1.000000     O
    O   1.0     0.459862     0.706297     0.095895  Biso 1.000000     O
    O   1.0     0.969000     0.706159     0.095887  Biso 1.000000     O
    O   1.0     0.371213     0.607800     0.030931  Biso 1.000000     O
    O   1.0     0.880284     0.607763     0.030936  Biso 1.000000     O
    O   1.0     0.437695     0.191495     0.031532  Biso 1.000000     O
    O   1.0     0.946802     0.191716     0.031563  Biso 1.000000     O
    O   1.0     0.499538     0.151426     0.162370  Biso 1.000000     O
    O   1.0     0.000000     0.151447     0.162361  Biso 1.000000     O
    O   1.0     0.065752     0.218231     0.051248  Biso 1.000000     O
    O   1.0     0.574844     0.218178     0.051232  Biso 1.000000     O
    O   1.0     0.499246     0.476313     0.950003  Biso 1.000000     O
    O   1.0     0.000000     0.476326     0.949988  Biso 1.000000     O
    O   1.0     0.461896     0.329919     0.941905  Biso 1.000000     O
    O   1.0     0.971002     0.329936     0.941880  Biso 1.000000     O
    O   1.0     0.372116     0.428162     0.000000  Biso 1.000000     O
    O   1.0     0.881229     0.428154     0.000000  Biso 1.000000     O
    O   1.0     0.239228     0.000000     0.818766  Biso 1.000000     O
    O   1.0     0.748154     0.000000     0.818790  Biso 1.000000     O
    O   1.0     0.189574     0.896751     0.870457  Biso 1.000000     O
    O   1.0     0.698651     0.896642     0.870529  Biso 1.000000     O
    O   1.0     0.326510     0.911123     0.838808  Biso 1.000000     O
    O   1.0     0.835570     0.911141     0.838818  Biso 1.000000     O
    O   1.0     0.245488     0.084795     0.564155  Biso 1.000000     O
    O   1.0     0.754581     0.084776     0.564190  Biso 1.000000     O
    O   1.0     0.197775     0.114002     0.703889  Biso 1.000000     O
    O   1.0     0.706877     0.114008     0.703905  Biso 1.000000     O
    O   1.0     0.119178     0.027585     0.610450  Biso 1.000000     O
    O   1.0     0.628256     0.027584     0.610480  Biso 1.000000     O
    O   1.0     0.239200     0.007258     0.217208  Biso 1.000000     O
    O   1.0     0.748304     0.007248     0.217215  Biso 1.000000     O
    O   1.0     0.190729     0.140125     0.165612  Biso 1.000000     O
    O   1.0     0.699825     0.140104     0.165609  Biso 1.000000     O
    O   1.0     0.327585     0.124210     0.196956  Biso 1.000000     O
    O   1.0     0.836685     0.124204     0.196959  Biso 1.000000     O
    O   1.0     0.243944     0.949435     0.472564  Biso 1.000000     O
    O   1.0     0.753050     0.949429     0.472576  Biso 1.000000     O
    O   1.0     0.195853     0.921437     0.332659  Biso 1.000000     O
    O   1.0     0.704943     0.921432     0.332676  Biso 1.000000     O
    O   1.0     0.118416     0.000000     0.426839  Biso 1.000000     O
    O   1.0     0.627519     0.000000     0.426866  Biso 1.000000     O
    O   1.0     0.237531     0.820925     0.006848  Biso 1.000000     O
    O   1.0     0.746610     0.820923     0.006865  Biso 1.000000     O
    O   1.0     0.189279     0.870181     0.140680  Biso 1.000000     O
    O   1.0     0.698382     0.870136     0.140729  Biso 1.000000     O
    O   1.0     0.325987     0.838730     0.124194  Biso 1.000000     O
    O   1.0     0.835092     0.838696     0.124191  Biso 1.000000     O
    O   1.0     0.245238     0.564670     0.950638  Biso 1.000000     O
    O   1.0     0.754271     0.564238     0.950367  Biso 1.000000     O
    O   1.0     0.196865     0.704077     0.921652  Biso 1.000000     O
    O   1.0     0.706104     0.703906     0.921677  Biso 1.000000     O
    O   1.0     0.118971     0.610191     0.000000  Biso 1.000000     O
    O   1.0     0.628247     0.610071     0.000000  Biso 1.000000     O
    O   1.0     0.239960     0.216978     0.000000  Biso 1.000000     O
    O   1.0     0.749119     0.216954     0.000000  Biso 1.000000     O
    O   1.0     0.191275     0.164959     0.896700  Biso 1.000000     O
    O   1.0     0.700379     0.164951     0.896745  Biso 1.000000     O
    O   1.0     0.327738     0.199286     0.911408  Biso 1.000000     O
    O   1.0     0.836846     0.199281     0.911392  Biso 1.000000     O
    O   1.0     0.244758     0.472482     0.085992  Biso 1.000000     O
    O   1.0     0.753808     0.472480     0.085962  Biso 1.000000     O
    O   1.0     0.196716     0.332519     0.114011  Biso 1.000000     O
    O   1.0     0.705820     0.332494     0.114017  Biso 1.000000     O
    O   1.0     0.119027     0.426912     0.027546  Biso 1.000000     O
    O   1.0     0.628060     0.426823     0.027568  Biso 1.000000     O
    P   1.0     0.435033     0.093199     0.417698  Biso 1.000000     P
    P   1.0     0.944127     0.093201     0.417691  Biso 1.000000     P
    P   1.0    -0.000313     0.963695     0.164370  Biso 1.000000     P
    P   1.0     0.508810     0.963748     0.164383  Biso 1.000000     P
    P   1.0     0.433260     0.942076     0.618100  Biso 1.000000     P
    P   1.0     0.942358     0.942082     0.618076  Biso 1.000000     P
    P   1.0     0.001581     0.072065     0.872456  Biso 1.000000     P
    P   1.0     0.510697     0.072051     0.872478  Biso 1.000000     P
    P   1.0     0.433645     0.618780     0.093120  Biso 1.000000     P
    P   1.0     0.942724     0.618660     0.093131  Biso 1.000000     P
    P   1.0     0.000762     0.873655     0.963956  Biso 1.000000     P
    P   1.0     0.509983     0.873492     0.963942  Biso 1.000000     P
    P   1.0     0.434976     0.417135     0.943052  Biso 1.000000     P
    P   1.0     0.944066     0.417146     0.943052  Biso 1.000000     P
    P   1.0     0.000812     0.163026     0.072048  Biso 1.000000     P
    P   1.0     0.509933     0.162938     0.072049  Biso 1.000000     P
    P   1.0     0.176658     0.095539     0.616672  Biso 1.000000     P
    P   1.0     0.685743     0.095528     0.616694  Biso 1.000000     P
    P   1.0     0.256779     0.954362     0.868169  Biso 1.000000     P
    P   1.0     0.765811     0.954312     0.868206  Biso 1.000000     P
    P   1.0     0.175014     0.939634     0.420008  Biso 1.000000     P
    P   1.0     0.684115     0.939622     0.420029  Biso 1.000000     P
    P   1.0     0.257413     0.081768     0.167763  Biso 1.000000     P
    P   1.0     0.766516     0.081757     0.167767  Biso 1.000000     P
    P   1.0     0.176117     0.616749     0.940150  Biso 1.000000     P
    P   1.0     0.685270     0.616572     0.940090  Biso 1.000000     P
    P   1.0     0.255927     0.868874     0.082175  Biso 1.000000     P
    P   1.0     0.765018     0.868845     0.082206  Biso 1.000000     P
    P   1.0     0.175865     0.419911     0.096016  Biso 1.000000     P
    P   1.0     0.684937     0.419876     0.096011  Biso 1.000000     P
    P   1.0     0.258434     0.168203     0.954286  Biso 1.000000     P
    P   1.0     0.767560     0.168191     0.954302  Biso 1.000000     P
   Zn   1.0     0.426386     0.083477     0.217294  Biso 1.000000    Zn
   Zn   1.0     0.935491     0.083466     0.217289  Biso 1.000000    Zn
   Zn   1.0     0.425106     0.952202     0.818488  Biso 1.000000    Zn
   Zn   1.0     0.934170     0.952232     0.818452  Biso 1.000000    Zn
   Zn   1.0     0.424882     0.819461     0.083310  Biso 1.000000    Zn
   Zn   1.0     0.933975     0.819207     0.083330  Biso 1.000000    Zn
   Zn   1.0     0.426832     0.216890     0.952406  Biso 1.000000    Zn
   Zn   1.0     0.935930     0.216911     0.952401  Biso 1.000000    Zn
   Zn   1.0     0.169664     0.082723     0.815348  Biso 1.000000    Zn
   Zn   1.0     0.678755     0.082745     0.815362  Biso 1.000000    Zn
   Zn   1.0     0.167037     0.952629     0.221093  Biso 1.000000    Zn
   Zn   1.0     0.676145     0.952618     0.221099  Biso 1.000000    Zn
   Zn   1.0     0.167976     0.815319     0.952643  Biso 1.000000    Zn
   Zn   1.0     0.677087     0.815150     0.952655  Biso 1.000000    Zn
   Zn   1.0     0.168445     0.220707     0.083065  Biso 1.000000    Zn
   Zn   1.0     0.677545     0.220697     0.083058  Biso 1.000000    Zn
   Zn   1.0     0.054081    -0.000070     0.517999  Biso 1.000000    Zn
   Zn   1.0     0.563182    -0.000080     0.518013  Biso 1.000000    Zn
   Zn   1.0     0.052696     0.518120     0.000101  Biso 1.000000    Zn
   Zn   1.0     0.561806     0.518114     0.000110  Biso 1.000000    Zn
   Zn   1.0     0.305865    -0.000199     0.517939  Biso 1.000000    Zn
   Zn   1.0     0.814959    -0.000197     0.517936  Biso 1.000000    Zn
   Zn   1.0     0.305251     0.517775     0.000000  Biso 1.000000    Zn
   Zn   1.0     0.814327     0.517755     0.000000  Biso 1.000000    Zn
