#======================================================================

# CRYSTAL DATA

#----------------------------------------------------------------------

data_VESTA_phase_1


_pd_phase_name                         MOF
_cell_length_a                         14.73200
_cell_length_b                         14.77900
_cell_length_c                         15.75700
_cell_angle_alpha                      117.88100
_cell_angle_beta                       97.49500
_cell_angle_gamma                      89.92000
_symmetry_space_group_name_H-M         "P 1"
_symmetry_Int_Tables_number            1

loop_
_symmetry_equiv_pos_as_xyz
   "x, y, z"

loop_
   _atom_site_label
   _atom_site_occupancy
   _atom_site_fract_x
   _atom_site_fract_y
   _atom_site_fract_z
   _atom_site_adp_type
   _atom_site_B_iso_or_equiv
   _atom_site_type_symbol
    H   1.0     0.227145     0.654011     0.335288  Biso 1.000000     H
    H   1.0     0.727095     0.653859     0.335401  Biso 1.000000     H
    H   1.0     0.261111     0.529177     0.398051  Biso 1.000000     H
    H   1.0     0.760543     0.529406     0.398643  Biso 1.000000     H
    H   1.0     0.321548     0.590485     0.572460  Biso 1.000000     H
    H   1.0     0.820707     0.591025     0.573153  Biso 1.000000     H
    H   1.0     0.348278     0.778266     0.683781  Biso 1.000000     H
    H   1.0     0.847609     0.778841     0.684154  Biso 1.000000     H
    H   1.0     0.347906     0.942782     0.715911  Biso 1.000000     H
    H   1.0     0.847168     0.943138     0.715941  Biso 1.000000     H
    H   1.0     0.377097     0.103105     0.766588  Biso 1.000000     H
    H   1.0     0.876791     0.103423     0.766448  Biso 1.000000     H
    H   1.0     0.333093     0.166041     0.697693  Biso 1.000000     H
    H   1.0     0.832564     0.166437     0.697732  Biso 1.000000     H
    H   1.0     0.168427     0.207919     0.692458  Biso 1.000000     H
    H   1.0     0.667983     0.208008     0.692575  Biso 1.000000     H
    H   1.0     0.032337     0.249168     0.783894  Biso 1.000000     H
    H   1.0     0.532034     0.249313     0.784236  Biso 1.000000     H
    H   1.0     0.027472     0.191553     0.909787  Biso 1.000000     H
    H   1.0     0.527427     0.191745     0.910203  Biso 1.000000     H
    H   1.0     0.279998     0.067437     0.865617  Biso 1.000000     H
    H   1.0     0.779743     0.067258     0.865423  Biso 1.000000     H
    H   1.0     0.023324     0.318346     0.664686  Biso 1.000000     H
    H   1.0     0.523416     0.318161     0.664688  Biso 1.000000     H
    H   1.0     0.490254     0.130703     0.601464  Biso 1.000000     H
    H   1.0     0.989519     0.130998     0.601910  Biso 1.000000     H
    H   1.0     0.429868     0.018455     0.427015  Biso 1.000000     H
    H   1.0     0.928781     0.018602     0.427588  Biso 1.000000     H
    H   1.0     0.402442     0.095698     0.316072  Biso 1.000000     H
    H   1.0     0.901541     0.095524     0.316350  Biso 1.000000     H
    H   1.0     0.402548     0.228278     0.284285  Biso 1.000000     H
    H   1.0     0.901736     0.227990     0.284240  Biso 1.000000     H
    H   1.0     0.372950     0.338354     0.233722  Biso 1.000000     H
    H   1.0     0.872744     0.337871     0.233471  Biso 1.000000     H
    H   1.0     0.417636     0.469599     0.302228  Biso 1.000000     H
    H   1.0     0.917171     0.469237     0.302188  Biso 1.000000     H
    H   1.0     0.081836     0.515237     0.307101  Biso 1.000000     H
    H   1.0     0.582128     0.515149     0.306960  Biso 1.000000     H
    H   1.0     0.217725     0.464353     0.215379  Biso 1.000000     H
    H   1.0     0.717940     0.464085     0.215112  Biso 1.000000     H
    H   1.0     0.222167     0.281036     0.089684  Biso 1.000000     H
    H   1.0     0.722201     0.280684     0.089471  Biso 1.000000     H
    H   1.0     0.469788     0.202508     0.134833  Biso 1.000000     H
    H   1.0     0.969650     0.202533     0.134624  Biso 1.000000     H
    H   1.0     0.275229     0.345961     0.664550  Biso 1.000000     H
    H   1.0     0.774142     0.346533     0.664327  Biso 1.000000     H
    H   1.0     0.239654     0.470598     0.601881  Biso 1.000000     H
    H   1.0     0.738680     0.470847     0.601337  Biso 1.000000     H
    H   1.0     0.177413     0.409069     0.427861  Biso 1.000000     H
    H   1.0     0.677368     0.409024     0.427000  Biso 1.000000     H
    H   1.0     0.150273     0.221257     0.316894  Biso 1.000000     H
    H   1.0     0.650827     0.221138     0.316175  Biso 1.000000     H
    H   1.0     0.151991     0.056904     0.284674  Biso 1.000000     H
    H   1.0     0.652007     0.056975     0.284392  Biso 1.000000     H
    H   1.0     0.123145     0.896450     0.233936  Biso 1.000000     H
    H   1.0     0.623124     0.896747     0.233804  Biso 1.000000     H
    H   1.0     0.167834     0.833479     0.302546  Biso 1.000000     H
    H   1.0     0.667503     0.833760     0.302507  Biso 1.000000     H
    H   1.0     0.332399     0.792145     0.307307  Biso 1.000000     H
    H   1.0     0.832135     0.792240     0.307378  Biso 1.000000     H
    H   1.0     0.468088     0.750952     0.215275  Biso 1.000000     H
    H   1.0     0.967986     0.751013     0.215551  Biso 1.000000     H
    H   1.0     0.472241     0.808721     0.089395  Biso 1.000000     H
    H   1.0     0.972371     0.808727     0.089653  Biso 1.000000     H
    H   1.0     0.219872     0.932961     0.134793  Biso 1.000000     H
    H   1.0     0.719900     0.932816     0.134561  Biso 1.000000     H
    H   1.0     0.476759     0.682083     0.335322  Biso 1.000000     H
    H   1.0     0.975372     0.681849     0.335265  Biso 1.000000     H
    H   1.0     0.010709     0.868923     0.397949  Biso 1.000000     H
    H   1.0     0.510933     0.869301     0.398210  Biso 1.000000     H
    H   1.0     0.072457     0.980875     0.572083  Biso 1.000000     H
    H   1.0     0.571880     0.981546     0.572565  Biso 1.000000     H
    H   1.0     0.099404     0.903716     0.683134  Biso 1.000000     H
    H   1.0     0.598814     0.904442     0.683660  Biso 1.000000     H
    H   1.0     0.097823     0.771559     0.715371  Biso 1.000000     H
    H   1.0     0.598292     0.771945     0.715618  Biso 1.000000     H
    H   1.0     0.126925     0.661564     0.766132  Biso 1.000000     H
    H   1.0     0.626957     0.662155     0.766412  Biso 1.000000     H
    H   1.0     0.082042     0.530375     0.697640  Biso 1.000000     H
    H   1.0     0.582392     0.530847     0.697807  Biso 1.000000     H
    H   1.0     0.417888     0.485156     0.693069  Biso 1.000000     H
    H   1.0     0.917453     0.485068     0.692906  Biso 1.000000     H
    H   1.0     0.281992     0.536159     0.784838  Biso 1.000000     H
    H   1.0     0.781678     0.536359     0.784802  Biso 1.000000     H
    H   1.0     0.277611     0.719571     0.910398  Biso 1.000000     H
    H   1.0     0.777635     0.719763     0.910485  Biso 1.000000     H
    H   1.0     0.030256     0.797539     0.865150  Biso 1.000000     H
    H   1.0     0.530067     0.797846     0.865199  Biso 1.000000     H
    C   1.0     0.269344     0.787864     0.472818  Biso 1.000000     C
    C   1.0     0.769118     0.787996     0.472832  Biso 1.000000     C
    C   1.0     0.254028     0.680148     0.411463  Biso 1.000000     C
    C   1.0     0.753836     0.680229     0.411647  Biso 1.000000     C
    C   1.0     0.272646     0.611355     0.447060  Biso 1.000000     C
    C   1.0     0.772144     0.611606     0.447502  Biso 1.000000     C
    C   1.0     0.306742     0.645463     0.545553  Biso 1.000000     C
    C   1.0     0.806040     0.645883     0.546071  Biso 1.000000     C
    C   1.0     0.322001     0.749634     0.607014  Biso 1.000000     C
    C   1.0     0.821410     0.750054     0.607346  Biso 1.000000     C
    C   1.0     0.303382     0.822198     0.573090  Biso 1.000000     C
    C   1.0     0.802988     0.822465     0.573172  Biso 1.000000     C
    C   1.0     0.318255     0.928046     0.642466  Biso 1.000000     C
    C   1.0     0.817820     0.928313     0.642389  Biso 1.000000     C
    C   1.0     0.317579     0.107704     0.719014  Biso 1.000000     C
    C   1.0     0.817200     0.107952     0.718910  Biso 1.000000     C
    C   1.0     0.235164     0.135469     0.772391  Biso 1.000000     C
    C   1.0     0.734816     0.135455     0.772339  Biso 1.000000     C
    C   1.0     0.164049     0.187016     0.749702  Biso 1.000000     C
    C   1.0     0.663660     0.187049     0.749791  Biso 1.000000     C
    C   1.0     0.088728     0.208933     0.799650  Biso 1.000000     C
    C   1.0     0.588438     0.209019     0.799878  Biso 1.000000     C
    C   1.0     0.085582     0.177690     0.869951  Biso 1.000000     C
    C   1.0     0.585425     0.177777     0.870200  Biso 1.000000     C
    C   1.0     0.226493     0.107371     0.844615  Biso 1.000000     C
    C   1.0     0.726239     0.107263     0.844519  Biso 1.000000     C
    C   1.0     0.480994     0.315395     0.527340  Biso 1.000000     C
    C   1.0     0.980722     0.315236     0.527245  Biso 1.000000     C
    C   1.0     0.496556     0.268567     0.588478  Biso 1.000000     C
    C   1.0     0.996301     0.268610     0.588541  Biso 1.000000     C
    C   1.0     0.478415     0.164217     0.552621  Biso 1.000000     C
    C   1.0     0.977799     0.164360     0.552930  Biso 1.000000     C
    C   1.0     0.444380     0.100300     0.454095  Biso 1.000000     C
    C   1.0     0.943542     0.100373     0.454481  Biso 1.000000     C
    C   1.0     0.428726     0.143435     0.392856  Biso 1.000000     C
    C   1.0     0.927984     0.143340     0.393077  Biso 1.000000     C
    C   1.0     0.446993     0.249894     0.427033  Biso 1.000000     C
    C   1.0     0.946505     0.249700     0.427016  Biso 1.000000     C
    C   1.0     0.431982     0.286740     0.357797  Biso 1.000000     C
    C   1.0     0.931506     0.286402     0.357642  Biso 1.000000     C
    C   1.0     0.432712     0.389895     0.281137  Biso 1.000000     C
    C   1.0     0.932403     0.389539     0.280960  Biso 1.000000     C
    C   1.0     0.014786     0.363405     0.227476  Biso 1.000000     C
    C   1.0     0.514998     0.363413     0.227530  Biso 1.000000     C
    C   1.0     0.086039     0.437153     0.249939  Biso 1.000000     C
    C   1.0     0.586302     0.437050     0.249828  Biso 1.000000     C
    C   1.0     0.161251     0.408738     0.199844  Biso 1.000000     C
    C   1.0     0.661442     0.408525     0.199651  Biso 1.000000     C
    C   1.0     0.164167     0.307290     0.129658  Biso 1.000000     C
    C   1.0     0.664263     0.307037     0.129524  Biso 1.000000     C
    C   1.0     0.023266     0.263123     0.155409  Biso 1.000000     C
    C   1.0     0.523390     0.263063     0.155547  Biso 1.000000     C
    C   1.0     0.232245     0.211957     0.527357  Biso 1.000000     C
    C   1.0     0.731871     0.212287     0.527091  Biso 1.000000     C
    C   1.0     0.247435     0.319723     0.588577  Biso 1.000000     C
    C   1.0     0.746808     0.320078     0.588208  Biso 1.000000     C
    C   1.0     0.227974     0.388402     0.553017  Biso 1.000000     C
    C   1.0     0.727369     0.388627     0.552470  Biso 1.000000     C
    C   1.0     0.192876     0.354169     0.454732  Biso 1.000000     C
    C   1.0     0.692752     0.354250     0.454053  Biso 1.000000     C
    C   1.0     0.177432     0.249991     0.393471  Biso 1.000000     C
    C   1.0     0.677622     0.250025     0.392863  Biso 1.000000     C
    C   1.0     0.196938     0.177500     0.427342  Biso 1.000000     C
    C   1.0     0.696997     0.177696     0.426941  Biso 1.000000     C
    C   1.0     0.181905     0.071659     0.358056  Biso 1.000000     C
    C   1.0     0.681982     0.071813     0.357785  Biso 1.000000     C
    C   1.0     0.182914     0.892016     0.281340  Biso 1.000000     C
    C   1.0     0.682803     0.892205     0.281246  Biso 1.000000     C
    C   1.0     0.265181     0.864652     0.227696  Biso 1.000000     C
    C   1.0     0.765084     0.864660     0.227629  Biso 1.000000     C
    C   1.0     0.336489     0.813083     0.250043  Biso 1.000000     C
    C   1.0     0.836327     0.813095     0.250076  Biso 1.000000     C
    C   1.0     0.411583     0.791231     0.199787  Biso 1.000000     C
    C   1.0     0.911515     0.791258     0.199952  Biso 1.000000     C
    C   1.0     0.414342     0.822585     0.129515  Biso 1.000000     C
    C   1.0     0.914391     0.822556     0.129660  Biso 1.000000     C
    C   1.0     0.273498     0.892961     0.155539  Biso 1.000000     C
    C   1.0     0.773487     0.892857     0.155417  Biso 1.000000     C
    C   1.0     0.017995     0.684633     0.472557  Biso 1.000000     C
    C   1.0     0.519316     0.684915     0.472671  Biso 1.000000     C
    C   1.0     0.002966     0.731357     0.411290  Biso 1.000000     C
    C   1.0     0.503867     0.731655     0.411466  Biso 1.000000     C
    C   1.0     0.022291     0.835461     0.446857  Biso 1.000000     C
    C   1.0     0.522604     0.835890     0.447148  Biso 1.000000     C
    C   1.0     0.057108     0.899205     0.545204  Biso 1.000000     C
    C   1.0     0.556957     0.899780     0.545587  Biso 1.000000     C
    C   1.0     0.072448     0.856113     0.606510  Biso 1.000000     C
    C   1.0     0.572331     0.856716     0.606925  Biso 1.000000     C
    C   1.0     0.053082     0.749877     0.572623  Biso 1.000000     C
    C   1.0     0.553559     0.750389     0.572918  Biso 1.000000     C
    C   1.0     0.068071     0.713143     0.641961  Biso 1.000000     C
    C   1.0     0.568426     0.713592     0.642222  Biso 1.000000     C
    C   1.0     0.067096     0.610119     0.718764  Biso 1.000000     C
    C   1.0     0.567242     0.610555     0.718956  Biso 1.000000     C
    C   1.0     0.484920     0.636928     0.772511  Biso 1.000000     C
    C   1.0     0.984800     0.636712     0.772406  Biso 1.000000     C
    C   1.0     0.413669     0.563242     0.750213  Biso 1.000000     C
    C   1.0     0.913392     0.563175     0.750082  Biso 1.000000     C
    C   1.0     0.338467     0.591749     0.800307  Biso 1.000000     C
    C   1.0     0.838263     0.591827     0.800269  Biso 1.000000     C
    C   1.0     0.335590     0.693234     0.870406  Biso 1.000000     C
    C   1.0     0.835563     0.693325     0.870430  Biso 1.000000     C
    C   1.0     0.476490     0.737267     0.844496  Biso 1.000000     C
    C   1.0     0.976530     0.737078     0.844437  Biso 1.000000     C
    N   1.0     0.299665     0.007702     0.629479  Biso 1.000000     N
    N   1.0     0.799576     0.007976     0.629282  Biso 1.000000     N
    N   1.0     0.153206     0.127391     0.892112  Biso 1.000000     N
    N   1.0     0.653055     0.127369     0.892186  Biso 1.000000     N
    N   1.0     0.450262     0.379361     0.370840  Biso 1.000000     N
    N   1.0     0.950218     0.378880     0.370560  Biso 1.000000     N
    N   1.0     0.096455     0.235260     0.107774  Biso 1.000000     N
    N   1.0     0.596514     0.235102     0.107796  Biso 1.000000     N
    N   1.0     0.200615     0.991971     0.370969  Biso 1.000000     N
    N   1.0     0.700651     0.992195     0.370817  Biso 1.000000     N
    N   1.0     0.346576     0.872980     0.107721  Biso 1.000000     N
    N   1.0     0.846656     0.872900     0.107736  Biso 1.000000     N
    N   1.0     0.049482     0.620643     0.629064  Biso 1.000000     N
    N   1.0     0.549582     0.621138     0.629304  Biso 1.000000     N
    N   1.0     0.403315     0.765208     0.892161  Biso 1.000000     N
    N   1.0     0.903414     0.765165     0.892192  Biso 1.000000     N
    O   1.0     0.253383     0.849574     0.435069  Biso 1.000000     O
    O   1.0     0.753169     0.849623     0.434992  Biso 1.000000     O
    O   1.0     0.496815     0.414729     0.565203  Biso 1.000000     O
    O   1.0     0.996567     0.414561     0.565021  Biso 1.000000     O
    O   1.0     0.249698     0.150363     0.564998  Biso 1.000000     O
    O   1.0     0.749020     0.150792     0.564901  Biso 1.000000     O
    O   1.0     0.000565     0.585555     0.434915  Biso 1.000000     O
    O   1.0     0.503365     0.585600     0.434861  Biso 1.000000     O
   Cl   1.0     0.047444     0.996400     0.107268  Biso 1.000000    Cl
   Cl   1.0     0.547229     0.996248     0.107080  Biso 1.000000    Cl
   Cl   1.0     0.202353     0.889287     0.892831  Biso 1.000000    Cl
   Cl   1.0     0.702532     0.889393     0.893080  Biso 1.000000    Cl
   Cl   1.0     0.452546     0.003957     0.892729  Biso 1.000000    Cl
   Cl   1.0     0.952418     0.004253     0.893012  Biso 1.000000    Cl
   Cl   1.0     0.297392     0.111082     0.106766  Biso 1.000000    Cl
   Cl   1.0     0.797310     0.111011     0.107086  Biso 1.000000    Cl
   Cu   1.0     0.250429    -0.000126     0.500106  Biso 1.000000    Cu
   Cu   1.0     0.750437     0.000189     0.500040  Biso 1.000000    Cu
   Cu   1.0    -0.000374     0.499896     0.499917  Biso 1.000000    Cu
   Cu   1.0     0.499878     0.500225     0.500039  Biso 1.000000    Cu
   Cd   1.0     0.124840     0.058025     0.000043  Biso 1.000000    Cd
   Cd   1.0     0.624828     0.057915     0.000101  Biso 1.000000    Cd
   Cd   1.0     0.374829     0.942371    -0.000238  Biso 1.000000    Cd
   Cd   1.0     0.875068     0.942465     0.000051  Biso 1.000000    Cd
