#======================================================================

# CRYSTAL DATA

#----------------------------------------------------------------------

data_VESTA_phase_1


_pd_phase_name                         MOF
_cell_length_a                         17.21500
_cell_length_b                         17.39500
_cell_length_c                         18.48200
_cell_angle_alpha                      90.03900
_cell_angle_beta                       90.01900
_cell_angle_gamma                      90.14000
_symmetry_space_group_name_H-M         "P 1"
_symmetry_Int_Tables_number            1

loop_
_symmetry_equiv_pos_as_xyz
   "x, y, z"

loop_
   _atom_site_label
   _atom_site_occupancy
   _atom_site_fract_x
   _atom_site_fract_y
   _atom_site_fract_z
   _atom_site_adp_type
   _atom_site_B_iso_or_equiv
   _atom_site_type_symbol
    H   1.0     0.603842     0.943765     0.621422  Biso 1.000000     H
    H   1.0     0.473842     0.038604     0.627857  Biso 1.000000     H
    H   1.0     0.642435     0.135572     0.486969  Biso 1.000000     H
    H   1.0     0.388249     0.102141     0.541027  Biso 1.000000     H
    H   1.0     0.302216     0.215026     0.522188  Biso 1.000000     H
    H   1.0     0.501434     0.364071     0.514972  Biso 1.000000     H
    H   1.0     0.588180     0.253300     0.538141  Biso 1.000000     H
    H   1.0     0.707831     0.063137     0.359777  Biso 1.000000     H
    H   1.0     0.701381     0.978478     0.232325  Biso 1.000000     H
    H   1.0     0.794385     0.841696     0.402436  Biso 1.000000     H
    H   1.0     0.735643     0.740604     0.338406  Biso 1.000000     H
    H   1.0     0.752638     0.630674     0.254054  Biso 1.000000     H
    H   1.0     0.785449     0.786494     0.076875  Biso 1.000000     H
    H   1.0     0.774934     0.897629     0.160695  Biso 1.000000     H
    H   1.0     0.104718     0.556924     0.378289  Biso 1.000000     H
    H   1.0     0.974446     0.461889     0.372018  Biso 1.000000     H
    H   1.0     0.143016     0.365091     0.512620  Biso 1.000000     H
    H   1.0     0.888758     0.398010     0.458740  Biso 1.000000     H
    H   1.0     0.802528     0.284885     0.477538  Biso 1.000000     H
    H   1.0     0.001388     0.136322     0.484336  Biso 1.000000     H
    H   1.0     0.088347     0.247346     0.461304  Biso 1.000000     H
    H   1.0     0.208685     0.437234     0.639738  Biso 1.000000     H
    H   1.0     0.201486     0.521799     0.767138  Biso 1.000000     H
    H   1.0     0.295022     0.659259     0.597480  Biso 1.000000     H
    H   1.0     0.235629     0.760191     0.661824  Biso 1.000000     H
    H   1.0     0.251606     0.869854     0.746747  Biso 1.000000     H
    H   1.0     0.285121     0.713465     0.923266  Biso 1.000000     H
    H   1.0     0.275107     0.602665     0.838964  Biso 1.000000     H
    H   1.0     0.103777     0.943505     0.878929  Biso 1.000000     H
    H   1.0     0.973838     0.038359     0.872253  Biso 1.000000     H
    H   1.0     0.142439     0.135750     0.013113  Biso 1.000000     H
    H   1.0     0.888256     0.102195     0.958818  Biso 1.000000     H
    H   1.0     0.802238     0.215114     0.977568  Biso 1.000000     H
    H   1.0     0.001432     0.364171     0.984779  Biso 1.000000     H
    H   1.0     0.088170     0.253348     0.961741  Biso 1.000000     H
    H   1.0     0.207007     0.062713     0.140667  Biso 1.000000     H
    H   1.0     0.200835     0.978011     0.267988  Biso 1.000000     H
    H   1.0     0.294358     0.841572     0.097776  Biso 1.000000     H
    H   1.0     0.235497     0.740290     0.161657  Biso 1.000000     H
    H   1.0     0.252506     0.630415     0.245962  Biso 1.000000     H
    H   1.0     0.285499     0.786372     0.423219  Biso 1.000000     H
    H   1.0     0.274887     0.897449     0.339458  Biso 1.000000     H
    H   1.0     0.604767     0.557242     0.121532  Biso 1.000000     H
    H   1.0     0.474478     0.462225     0.127873  Biso 1.000000     H
    H   1.0     0.642949     0.365130     0.987278  Biso 1.000000     H
    H   1.0     0.388673     0.398040     0.041262  Biso 1.000000     H
    H   1.0     0.302481     0.284765     0.022893  Biso 1.000000     H
    H   1.0     0.501435     0.136309     0.016273  Biso 1.000000     H
    H   1.0     0.588395     0.247525     0.038674  Biso 1.000000     H
    H   1.0     0.708269     0.437479     0.859944  Biso 1.000000     H
    H   1.0     0.701221     0.522035     0.732646  Biso 1.000000     H
    H   1.0     0.795140     0.659331     0.902459  Biso 1.000000     H
    H   1.0     0.735606     0.760373     0.838142  Biso 1.000000     H
    H   1.0     0.751566     0.869960     0.753269  Biso 1.000000     H
    H   1.0     0.785235     0.713415     0.576723  Biso 1.000000     H
    H   1.0     0.775212     0.602691     0.660976  Biso 1.000000     H
    H   1.0     0.896227     0.056477     0.121059  Biso 1.000000     H
    H   1.0     0.026169     0.961625     0.127731  Biso 1.000000     H
    H   1.0     0.857570     0.864238     0.986866  Biso 1.000000     H
    H   1.0     0.111753     0.897792     0.041177  Biso 1.000000     H
    H   1.0     0.197771     0.784873     0.022427  Biso 1.000000     H
    H   1.0     0.998577     0.635818     0.015189  Biso 1.000000     H
    H   1.0     0.911837     0.746641     0.038226  Biso 1.000000     H
    H   1.0     0.792989     0.937265     0.859315  Biso 1.000000     H
    H   1.0     0.799170     0.021960     0.731990  Biso 1.000000     H
    H   1.0     0.705657     0.158416     0.902195  Biso 1.000000     H
    H   1.0     0.764580     0.259684     0.838312  Biso 1.000000     H
    H   1.0     0.747586     0.369566     0.754012  Biso 1.000000     H
    H   1.0     0.714496     0.213618     0.576762  Biso 1.000000     H
    H   1.0     0.725100     0.102538     0.660519  Biso 1.000000     H
    H   1.0     0.395238     0.442746     0.878450  Biso 1.000000     H
    H   1.0     0.525526     0.537764     0.872108  Biso 1.000000     H
    H   1.0     0.357049     0.634862     0.012696  Biso 1.000000     H
    H   1.0     0.611327     0.601948     0.958718  Biso 1.000000     H
    H   1.0     0.697521     0.715221     0.977087  Biso 1.000000     H
    H   1.0     0.498570     0.863682     0.983706  Biso 1.000000     H
    H   1.0     0.411608     0.752469     0.961304  Biso 1.000000     H
    H   1.0     0.291776     0.562492     0.140028  Biso 1.000000     H
    H   1.0     0.298830     0.477928     0.267321  Biso 1.000000     H
    H   1.0     0.204851     0.340658     0.097519  Biso 1.000000     H
    H   1.0     0.264380     0.239600     0.161830  Biso 1.000000     H
    H   1.0     0.248405     0.130018     0.246707  Biso 1.000000     H
    H   1.0     0.214779     0.286574     0.423252  Biso 1.000000     H
    H   1.0     0.224817     0.397294     0.338996  Biso 1.000000     H
    H   1.0     0.396146     0.056221     0.378551  Biso 1.000000     H
    H   1.0     0.526151     0.961389     0.372121  Biso 1.000000     H
    H   1.0     0.357556     0.864415     0.513005  Biso 1.000000     H
    H   1.0     0.611744     0.897853     0.458944  Biso 1.000000     H
    H   1.0     0.697782     0.784972     0.477784  Biso 1.000000     H
    H   1.0     0.498569     0.635922     0.485018  Biso 1.000000     H
    H   1.0     0.411819     0.746688     0.461850  Biso 1.000000     H
    H   1.0     0.292202     0.936866     0.640212  Biso 1.000000     H
    H   1.0     0.298628     0.021516     0.767671  Biso 1.000000     H
    H   1.0     0.205635     0.158304     0.597558  Biso 1.000000     H
    H   1.0     0.264362     0.259386     0.661582  Biso 1.000000     H
    H   1.0     0.247362     0.369321     0.745929  Biso 1.000000     H
    H   1.0     0.214556     0.213508     0.923115  Biso 1.000000     H
    H   1.0     0.225072     0.102368     0.839299  Biso 1.000000     H
    H   1.0     0.895287     0.443064     0.621647  Biso 1.000000     H
    H   1.0     0.025564     0.538091     0.627932  Biso 1.000000     H
    H   1.0     0.857013     0.634908     0.487324  Biso 1.000000     H
    H   1.0     0.111267     0.601990     0.541228  Biso 1.000000     H
    H   1.0     0.197495     0.715129     0.522490  Biso 1.000000     H
    H   1.0     0.998631     0.863687     0.515733  Biso 1.000000     H
    H   1.0     0.911671     0.752647     0.538693  Biso 1.000000     H
    H   1.0     0.791307     0.562754     0.360238  Biso 1.000000     H
    H   1.0     0.798515     0.478187     0.232840  Biso 1.000000     H
    H   1.0     0.704969     0.340729     0.402495  Biso 1.000000     H
    H   1.0     0.764376     0.239798     0.338153  Biso 1.000000     H
    H   1.0     0.748398     0.130133     0.253229  Biso 1.000000     H
    H   1.0     0.714882     0.286522     0.076710  Biso 1.000000     H
    H   1.0     0.724894     0.397323     0.161013  Biso 1.000000     H
    C   1.0     0.591743     0.997256     0.593650  Biso 1.000000     C
    C   1.0     0.527272     0.043191     0.597267  Biso 1.000000     C
    C   1.0     0.614510     0.095761     0.523757  Biso 1.000000     C
    C   1.0     0.493186     0.170711     0.541079  Biso 1.000000     C
    C   1.0     0.412819     0.159727     0.537164  Biso 1.000000     C
    C   1.0     0.364738     0.222963     0.526897  Biso 1.000000     C
    C   1.0     0.396279     0.296787     0.519105  Biso 1.000000     C
    C   1.0     0.477068     0.306641     0.521400  Biso 1.000000     C
    C   1.0     0.525740     0.244096     0.533455  Biso 1.000000     C
    C   1.0     0.343333     0.364301     0.509121  Biso 1.000000     C
    C   1.0     0.723524     0.000000     0.349291  Biso 1.000000     C
    C   1.0     0.719932     0.962484     0.286287  Biso 1.000000     C
    C   1.0     0.768765     0.890057     0.374472  Biso 1.000000     C
    C   1.0     0.756054     0.826090     0.254781  Biso 1.000000     C
    C   1.0     0.749362     0.751073     0.281666  Biso 1.000000     C
    C   1.0     0.758495     0.689373     0.234518  Biso 1.000000     C
    C   1.0     0.773096     0.701423     0.160770  Biso 1.000000     C
    C   1.0     0.777180     0.776864     0.134516  Biso 1.000000     C
    C   1.0     0.769550     0.839200     0.181191  Biso 1.000000     C
    C   1.0     0.782043     0.634369     0.110529  Biso 1.000000     C
    C   1.0     0.092578     0.503378     0.406043  Biso 1.000000     C
    C   1.0     0.027917     0.457366     0.402517  Biso 1.000000     C
    C   1.0     0.115148     0.404869     0.475871  Biso 1.000000     C
    C   1.0     0.993572     0.329713     0.458572  Biso 1.000000     C
    C   1.0     0.913232     0.340494     0.462524  Biso 1.000000     C
    C   1.0     0.865025     0.277124     0.472775  Biso 1.000000     C
    C   1.0     0.896416     0.203378     0.480493  Biso 1.000000     C
    C   1.0     0.977168     0.193704     0.478043  Biso 1.000000     C
    C   1.0     0.025938     0.256392     0.466036  Biso 1.000000     C
    C   1.0     0.843330     0.135785     0.490681  Biso 1.000000     C
    C   1.0     0.224254     0.496573     0.650299  Biso 1.000000     C
    C   1.0     0.220307     0.537953     0.713287  Biso 1.000000     C
    C   1.0     0.269395     0.610704     0.625317  Biso 1.000000     C
    C   1.0     0.256104     0.674466     0.745133  Biso 1.000000     C
    C   1.0     0.249211     0.749566     0.718568  Biso 1.000000     C
    C   1.0     0.257793     0.811128     0.766056  Biso 1.000000     C
    C   1.0     0.272325     0.798861     0.839789  Biso 1.000000     C
    C   1.0     0.276827     0.723310     0.865661  Biso 1.000000     C
    C   1.0     0.269572     0.661144     0.818696  Biso 1.000000     C
    C   1.0     0.280813     0.865625     0.890534  Biso 1.000000     C
    C   1.0     0.091701     0.997096     0.906600  Biso 1.000000     C
    C   1.0     0.027244     0.043037     0.902866  Biso 1.000000     C
    C   1.0     0.114499     0.095825     0.976348  Biso 1.000000     C
    C   1.0     0.993206     0.170746     0.958827  Biso 1.000000     C
    C   1.0     0.912838     0.159782     0.962686  Biso 1.000000     C
    C   1.0     0.864759     0.223039     0.972898  Biso 1.000000     C
    C   1.0     0.896295     0.296878     0.980694  Biso 1.000000     C
    C   1.0     0.977084     0.306728     0.978393  Biso 1.000000     C
    C   1.0     0.025730     0.244153     0.966405  Biso 1.000000     C
    C   1.0     0.843328     0.364383     0.990732  Biso 1.000000     C
    C   1.0     0.222920     0.000000     0.151074  Biso 1.000000     C
    C   1.0     0.219452     0.962098     0.214019  Biso 1.000000     C
    C   1.0     0.268544     0.889842     0.125773  Biso 1.000000     C
    C   1.0     0.255930     0.825825     0.245357  Biso 1.000000     C
    C   1.0     0.249244     0.750793     0.218409  Biso 1.000000     C
    C   1.0     0.258390     0.689132     0.265525  Biso 1.000000     C
    C   1.0     0.273046     0.701252     0.339278  Biso 1.000000     C
    C   1.0     0.277164     0.776708     0.365576  Biso 1.000000     C
    C   1.0     0.269498     0.839000     0.318944  Biso 1.000000     C
    C   1.0     0.282029     0.634271     0.389500  Biso 1.000000     C
    C   1.0     0.592600     0.503642     0.093802  Biso 1.000000     C
    C   1.0     0.527939     0.457642     0.097358  Biso 1.000000     C
    C   1.0     0.615104     0.404993     0.024018  Biso 1.000000     C
    C   1.0     0.493538     0.329823     0.041478  Biso 1.000000     C
    C   1.0     0.413180     0.340525     0.037597  Biso 1.000000     C
    C   1.0     0.364988     0.277065     0.027638  Biso 1.000000     C
    C   1.0     0.396393     0.203281     0.020196  Biso 1.000000     C
    C   1.0     0.477170     0.193701     0.022461  Biso 1.000000     C
    C   1.0     0.525960     0.256496     0.034097  Biso 1.000000     C
    C   1.0     0.343324     0.135565     0.010395  Biso 1.000000     C
    C   1.0     0.723989     0.496778     0.849465  Biso 1.000000     C
    C   1.0     0.720095     0.538155     0.786522  Biso 1.000000     C
    C   1.0     0.769395     0.610817     0.874575  Biso 1.000000     C
    C   1.0     0.756149     0.674576     0.754814  Biso 1.000000     C
    C   1.0     0.749187     0.749697     0.781400  Biso 1.000000     C
    C   1.0     0.757794     0.811215     0.733949  Biso 1.000000     C
    C   1.0     0.772337     0.798881     0.660220  Biso 1.000000     C
    C   1.0     0.776913     0.723310     0.634325  Biso 1.000000     C
    C   1.0     0.769623     0.661188     0.681253  Biso 1.000000     C
    C   1.0     0.780858     0.865607     0.609527  Biso 1.000000     C
    C   1.0     0.908305     0.002888     0.093386  Biso 1.000000     C
    C   1.0     0.972762     0.956948     0.097119  Biso 1.000000     C
    C   1.0     0.885509     0.904162     0.023633  Biso 1.000000     C
    C   1.0     0.006802     0.829242     0.041152  Biso 1.000000     C
    C   1.0     0.087171     0.840206     0.037303  Biso 1.000000     C
    C   1.0     0.135250     0.776950     0.027090  Biso 1.000000     C
    C   1.0     0.103713     0.703111     0.019289  Biso 1.000000     C
    C   1.0     0.022924     0.693261     0.021580  Biso 1.000000     C
    C   1.0     0.974278     0.755835     0.033569  Biso 1.000000     C
    C   1.0     0.156682     0.635608     0.009250  Biso 1.000000     C
    C   1.0     0.777082    -0.003550     0.848905  Biso 1.000000     C
    C   1.0     0.780555     0.037877     0.785958  Biso 1.000000     C
    C   1.0     0.731468     0.110142     0.874201  Biso 1.000000     C
    C   1.0     0.744096     0.174157     0.754617  Biso 1.000000     C
    C   1.0     0.750817     0.249186     0.781563  Biso 1.000000     C
    C   1.0     0.741675     0.310852     0.734449  Biso 1.000000     C
    C   1.0     0.726996     0.298736     0.660699  Biso 1.000000     C
    C   1.0     0.722846     0.223280     0.634403  Biso 1.000000     C
    C   1.0     0.730511     0.160985     0.681033  Biso 1.000000     C
    C   1.0     0.718004     0.365718     0.610478  Biso 1.000000     C
    C   1.0     0.407404     0.496347     0.906178  Biso 1.000000     C
    C   1.0     0.472063     0.542348     0.902622  Biso 1.000000     C
    C   1.0     0.384897     0.594999     0.975959  Biso 1.000000     C
    C   1.0     0.506463     0.670168     0.958498  Biso 1.000000     C
    C   1.0     0.586821     0.659465     0.962383  Biso 1.000000     C
    C   1.0     0.635014     0.722923     0.972341  Biso 1.000000     C
    C   1.0     0.603611     0.796708     0.979784  Biso 1.000000     C
    C   1.0     0.522835     0.806290     0.977517  Biso 1.000000     C
    C   1.0     0.474043     0.743496     0.965883  Biso 1.000000     C
    C   1.0     0.656682     0.864423     0.989586  Biso 1.000000     C
    C   1.0     0.276046     0.503195     0.150507  Biso 1.000000     C
    C   1.0     0.279943     0.461815     0.213448  Biso 1.000000     C
    C   1.0     0.230611     0.389167     0.125400  Biso 1.000000     C
    C   1.0     0.243857     0.325403     0.245159  Biso 1.000000     C
    C   1.0     0.250807     0.250280     0.218573  Biso 1.000000     C
    C   1.0     0.242189     0.188764     0.266026  Biso 1.000000     C
    C   1.0     0.227658     0.201104     0.339757  Biso 1.000000     C
    C   1.0     0.223094     0.276676     0.365649  Biso 1.000000     C
    C   1.0     0.230396     0.338795     0.318720  Biso 1.000000     C
    C   1.0     0.219141     0.134381     0.390452  Biso 1.000000     C
    C   1.0     0.408248     0.002731     0.406324  Biso 1.000000     C
    C   1.0     0.472721     0.956799     0.402710  Biso 1.000000     C
    C   1.0     0.385482     0.904226     0.476218  Biso 1.000000     C
    C   1.0     0.506810     0.829281     0.458902  Biso 1.000000     C
    C   1.0     0.587176     0.840266     0.462809  Biso 1.000000     C
    C   1.0     0.635261     0.777034     0.473078  Biso 1.000000     C
    C   1.0     0.603723     0.703209     0.480876  Biso 1.000000     C
    C   1.0     0.522934     0.693351     0.478585  Biso 1.000000     C
    C   1.0     0.474259     0.755895     0.466529  Biso 1.000000     C
    C   1.0     0.656673     0.635696     0.490864  Biso 1.000000     C
    C   1.0     0.276503    -0.003897     0.650700  Biso 1.000000     C
    C   1.0     0.280084     0.037513     0.713707  Biso 1.000000     C
    C   1.0     0.231256     0.109942     0.625520  Biso 1.000000     C
    C   1.0     0.243954     0.173905     0.745212  Biso 1.000000     C
    C   1.0     0.250641     0.248921     0.718322  Biso 1.000000     C
    C   1.0     0.241508     0.310622     0.765467  Biso 1.000000     C
    C   1.0     0.226906     0.298573     0.839215  Biso 1.000000     C
    C   1.0     0.222825     0.223134     0.865473  Biso 1.000000     C
    C   1.0     0.230455     0.160796     0.818801  Biso 1.000000     C
    C   1.0     0.217962     0.365627     0.889453  Biso 1.000000     C
    C   1.0     0.907433     0.496611     0.593896  Biso 1.000000     C
    C   1.0     0.972097     0.542618     0.597430  Biso 1.000000     C
    C   1.0     0.884875     0.595126     0.524072  Biso 1.000000     C
    C   1.0     0.006448     0.670282     0.541402  Biso 1.000000     C
    C   1.0     0.086791     0.659507     0.537469  Biso 1.000000     C
    C   1.0     0.134996     0.722882     0.527245  Biso 1.000000     C
    C   1.0     0.103604     0.796631     0.519556  Biso 1.000000     C
    C   1.0     0.022851     0.806302     0.521999  Biso 1.000000     C
    C   1.0     0.974083     0.743607     0.533975  Biso 1.000000     C
    C   1.0     0.156692     0.864220     0.509353  Biso 1.000000     C
    C   1.0     0.775739     0.503415     0.349677  Biso 1.000000     C
    C   1.0     0.779690     0.462033     0.286690  Biso 1.000000     C
    C   1.0     0.730598     0.389284     0.374659  Biso 1.000000     C
    C   1.0     0.743887     0.325521     0.254845  Biso 1.000000     C
    C   1.0     0.750797     0.250422     0.281408  Biso 1.000000     C
    C   1.0     0.742207     0.188860     0.233921  Biso 1.000000     C
    C   1.0     0.727683     0.201127     0.160188  Biso 1.000000     C
    C   1.0     0.723172     0.276678     0.134316  Biso 1.000000     C
    C   1.0     0.730435     0.338844     0.181280  Biso 1.000000     C
    C   1.0     0.719189     0.134363     0.109444  Biso 1.000000     C
    N   1.0     0.645627     0.030489     0.547491  Biso 1.000000     N
    N   1.0     0.542495     0.106055     0.552902  Biso 1.000000     N
    N   1.0     0.754033     0.958249     0.403654  Biso 1.000000     N
    N   1.0     0.748578     0.889761     0.302894  Biso 1.000000     N
    N   1.0     0.146462     0.470193     0.452099  Biso 1.000000     N
    N   1.0     0.043023     0.394506     0.446830  Biso 1.000000     N
    N   1.0     0.254918     0.542409     0.596059  Biso 1.000000     N
    N   1.0     0.248908     0.610868     0.696823  Biso 1.000000     N
    N   1.0     0.145598     0.030464     0.952738  Biso 1.000000     N
    N   1.0     0.042488     0.106045     0.947134  Biso 1.000000     N
    N   1.0     0.253581     0.957981     0.096675  Biso 1.000000     N
    N   1.0     0.248336     0.889476     0.197329  Biso 1.000000     N
    N   1.0     0.646441     0.470365     0.047752  Biso 1.000000     N
    N   1.0     0.542997     0.394691     0.053067  Biso 1.000000     N
    N   1.0     0.754792     0.542555     0.903761  Biso 1.000000     N
    N   1.0     0.748862     0.611010     0.803068  Biso 1.000000     N
    N   1.0     0.854409     0.969522     0.047246  Biso 1.000000     N
    N   1.0     0.957520     0.893942     0.052847  Biso 1.000000     N
    N   1.0     0.746424     0.042003     0.903302  Biso 1.000000     N
    N   1.0     0.751680     0.110504     0.802646  Biso 1.000000     N
    N   1.0     0.353561     0.529626     0.952226  Biso 1.000000     N
    N   1.0     0.457004     0.605300     0.946910  Biso 1.000000     N
    N   1.0     0.245222     0.457427     0.096215  Biso 1.000000     N
    N   1.0     0.251157     0.388967     0.196904  Biso 1.000000     N
    N   1.0     0.354366     0.969497     0.452483  Biso 1.000000     N
    N   1.0     0.457498     0.893934     0.447074  Biso 1.000000     N
    N   1.0     0.245997     0.041753     0.596336  Biso 1.000000     N
    N   1.0     0.251435     0.110234     0.697100  Biso 1.000000     N
    N   1.0     0.853556     0.529802     0.547839  Biso 1.000000     N
    N   1.0     0.956999     0.605483     0.553119  Biso 1.000000     N
    N   1.0     0.745071     0.457580     0.403916  Biso 1.000000     N
    N   1.0     0.751090     0.389118     0.303154  Biso 1.000000     N
    O   1.0     0.372978     0.423898     0.478207  Biso 1.000000     O
    O   1.0     0.273824     0.359961     0.530899  Biso 1.000000     O
    O   1.0     0.796619     0.646558     0.043915  Biso 1.000000     O
    O   1.0     0.772807     0.566662     0.136554  Biso 1.000000     O
    O   1.0     0.872826     0.076266     0.521612  Biso 1.000000     O
    O   1.0     0.773750     0.139994     0.469033  Biso 1.000000     O
    O   1.0     0.296790     0.853233     0.956745  Biso 1.000000     O
    O   1.0     0.269971     0.933411     0.865215  Biso 1.000000     O
    O   1.0     0.872976     0.424031     0.021687  Biso 1.000000     O
    O   1.0     0.773787     0.359980     0.969000  Biso 1.000000     O
    O   1.0     0.296617     0.646539     0.456117  Biso 1.000000     O
    O   1.0     0.272771     0.566533     0.363449  Biso 1.000000     O
    O   1.0     0.373108     0.075486     0.980633  Biso 1.000000     O
    O   1.0     0.273466     0.140179     0.031105  Biso 1.000000     O
    O   1.0     0.796824     0.853211     0.543313  Biso 1.000000     O
    O   1.0     0.769950     0.933392     0.634909  Biso 1.000000     O
    O   1.0     0.127034     0.575959     0.978296  Biso 1.000000     O
    O   1.0     0.226222     0.640010     0.030984  Biso 1.000000     O
    O   1.0     0.703393     0.353451     0.543866  Biso 1.000000     O
    O   1.0     0.727264     0.433457     0.636526  Biso 1.000000     O
    O   1.0     0.626899     0.924502     0.019351  Biso 1.000000     O
    O   1.0     0.726541     0.859809     0.968879  Biso 1.000000     O
    O   1.0     0.203186     0.146780     0.456668  Biso 1.000000     O
    O   1.0     0.230055     0.066596     0.365074  Biso 1.000000     O
    O   1.0     0.627029     0.576097     0.521774  Biso 1.000000     O
    O   1.0     0.726179     0.640034     0.469077  Biso 1.000000     O
    O   1.0     0.203390     0.353438     0.956068  Biso 1.000000     O
    O   1.0     0.227195     0.433334     0.863426  Biso 1.000000     O
    O   1.0     0.127193     0.923737     0.478420  Biso 1.000000     O
    O   1.0     0.226279     0.860002     0.530977  Biso 1.000000     O
    O   1.0     0.703225     0.146755     0.043231  Biso 1.000000     O
    O   1.0     0.730043     0.066579     0.134762  Biso 1.000000     O
   Cd   1.0     0.772845     0.993875     0.521809  Biso 1.000000    Cd
   Cd   1.0     0.273915     0.506692     0.477795  Biso 1.000000    Cd
   Cd   1.0     0.272736     0.993703     0.978638  Biso 1.000000    Cd
   Cd   1.0     0.773885     0.506816     0.022037  Biso 1.000000    Cd
   Cd   1.0     0.727274     0.006284     0.021341  Biso 1.000000    Cd
   Cd   1.0     0.226121     0.493175     0.977945  Biso 1.000000    Cd
   Cd   1.0     0.227166     0.006130     0.478184  Biso 1.000000    Cd
   Cd   1.0     0.726092     0.493302     0.522180  Biso 1.000000    Cd
