#======================================================================

# CRYSTAL DATA

#----------------------------------------------------------------------

data_VESTA_phase_1


_pd_phase_name                         MOF
_cell_length_a                         20.78100
_cell_length_b                         12.14500
_cell_length_c                         12.14400
_cell_angle_alpha                      96.95800
_cell_angle_beta                       105.25900
_cell_angle_gamma                      74.89100
_symmetry_space_group_name_H-M         "P 1"
_symmetry_Int_Tables_number            1

loop_
_symmetry_equiv_pos_as_xyz
   "x, y, z"

loop_
   _atom_site_label
   _atom_site_occupancy
   _atom_site_fract_x
   _atom_site_fract_y
   _atom_site_fract_z
   _atom_site_adp_type
   _atom_site_B_iso_or_equiv
   _atom_site_type_symbol
    H   1.0     0.450053     0.191402     0.829021  Biso 1.000000     H
    H   1.0     0.950047     0.191391     0.828984  Biso 1.000000     H
    H   1.0     0.369578     0.218150     0.639022  Biso 1.000000     H
    H   1.0     0.869576     0.218135     0.638979  Biso 1.000000     H
    H   1.0     0.122389     0.089924     0.675329  Biso 1.000000     H
    H   1.0     0.622383     0.089908     0.675348  Biso 1.000000     H
    H   1.0     0.102488     0.101215     0.462991  Biso 1.000000     H
    H   1.0     0.602475     0.101192     0.463011  Biso 1.000000     H
    H   1.0     0.396519     0.141125     0.255146  Biso 1.000000     H
    H   1.0     0.896533     0.141098     0.255118  Biso 1.000000     H
    H   1.0     0.349571     0.190660     0.426912  Biso 1.000000     H
    H   1.0     0.849578     0.190636     0.426874  Biso 1.000000     H
    H   1.0     0.299957     0.829091     0.191245  Biso 1.000000     H
    H   1.0     0.799944     0.829075     0.191282  Biso 1.000000     H
    H   1.0     0.380451     0.639494     0.218014  Biso 1.000000     H
    H   1.0     0.880437     0.639480     0.218084  Biso 1.000000     H
    H   1.0     0.127577     0.674664     0.090059  Biso 1.000000     H
    H   1.0     0.627565     0.674646     0.090073  Biso 1.000000     H
    H   1.0     0.147580     0.462288     0.101496  Biso 1.000000     H
    H   1.0     0.647566     0.462273     0.101537  Biso 1.000000     H
    H   1.0     0.353507     0.255584     0.141353  Biso 1.000000     H
    H   1.0     0.853494     0.255573     0.141397  Biso 1.000000     H
    H   1.0     0.400423     0.427615     0.190657  Biso 1.000000     H
    H   1.0     0.900409     0.427601     0.190716  Biso 1.000000     H
    H   1.0     0.049947     0.808649     0.171094  Biso 1.000000     H
    H   1.0     0.549942     0.808638     0.171037  Biso 1.000000     H
    H   1.0     0.130417     0.781901     0.361103  Biso 1.000000     H
    H   1.0     0.630416     0.781890     0.361038  Biso 1.000000     H
    H   1.0     0.377608     0.910128     0.324701  Biso 1.000000     H
    H   1.0     0.877602     0.910111     0.324738  Biso 1.000000     H
    H   1.0     0.397513     0.898842     0.537042  Biso 1.000000     H
    H   1.0     0.897500     0.898812     0.537082  Biso 1.000000     H
    H   1.0     0.103455     0.858946     0.744953  Biso 1.000000     H
    H   1.0     0.603470     0.858915     0.744907  Biso 1.000000     H
    H   1.0     0.150410     0.809408     0.573199  Biso 1.000000     H
    H   1.0     0.650418     0.809381     0.573143  Biso 1.000000     H
    H   1.0     0.200051     0.170958     0.808750  Biso 1.000000     H
    H   1.0     0.700040     0.170944     0.808791  Biso 1.000000     H
    H   1.0     0.119558     0.360554     0.781957  Biso 1.000000     H
    H   1.0     0.619545     0.360537     0.782008  Biso 1.000000     H
    H   1.0     0.372429     0.325390     0.909959  Biso 1.000000     H
    H   1.0     0.872417     0.325375     0.909990  Biso 1.000000     H
    H   1.0     0.352428     0.537762     0.898504  Biso 1.000000     H
    H   1.0     0.852417     0.537745     0.898557  Biso 1.000000     H
    H   1.0     0.146500     0.744462     0.858644  Biso 1.000000     H
    H   1.0     0.646488     0.744448     0.858690  Biso 1.000000     H
    H   1.0     0.099585     0.572433     0.809319  Biso 1.000000     H
    H   1.0     0.599573     0.572419     0.809369  Biso 1.000000     H
    C   1.0     0.087731     0.108055     0.878124  Biso 1.000000     C
    C   1.0     0.587734     0.108044     0.878158  Biso 1.000000     C
    C   1.0     0.041394     0.136708     0.763640  Biso 1.000000     C
    C   1.0     0.541393     0.136702     0.763673  Biso 1.000000     C
    C   1.0     0.469497     0.176646     0.752531  Biso 1.000000     C
    C   1.0     0.969493     0.176641     0.752495  Biso 1.000000     C
    C   1.0     0.424861     0.190955     0.646610  Biso 1.000000     C
    C   1.0     0.924861     0.190947     0.646572  Biso 1.000000     C
    C   1.0     0.449566     0.167974     0.545877  Biso 1.000000     C
    C   1.0     0.949570     0.167976     0.545845  Biso 1.000000     C
    C   1.0     0.022587     0.136798     0.556534  Biso 1.000000     C
    C   1.0     0.522578     0.136787     0.556563  Biso 1.000000     C
    C   1.0     0.067219     0.120114     0.666920  Biso 1.000000     C
    C   1.0     0.567214     0.120103     0.666948  Biso 1.000000     C
    C   1.0     0.047372     0.119902     0.455973  Biso 1.000000     C
    C   1.0     0.547360     0.119887     0.456000  Biso 1.000000     C
    C   1.0     0.027687     0.108246     0.242195  Biso 1.000000     C
    C   1.0     0.527679     0.108233     0.242232  Biso 1.000000     C
    C   1.0     0.002374     0.124663     0.348738  Biso 1.000000     C
    C   1.0     0.502360     0.124656     0.348766  Biso 1.000000     C
    C   1.0     0.430691     0.145503     0.339450  Biso 1.000000     C
    C   1.0     0.930703     0.145490     0.339422  Biso 1.000000     C
    C   1.0     0.404902     0.170803     0.435208  Biso 1.000000     C
    C   1.0     0.904909     0.170789     0.435175  Biso 1.000000     C
    C   1.0     0.162308     0.877689     0.108232  Biso 1.000000     C
    C   1.0     0.662299     0.877672     0.108231  Biso 1.000000     C
    C   1.0     0.208600     0.763324     0.136694  Biso 1.000000     C
    C   1.0     0.708587     0.763308     0.136717  Biso 1.000000     C
    C   1.0     0.280521     0.752512     0.176556  Biso 1.000000     C
    C   1.0     0.780508     0.752497     0.176593  Biso 1.000000     C
    C   1.0     0.325158     0.646824     0.190869  Biso 1.000000     C
    C   1.0     0.825145     0.646810     0.190924  Biso 1.000000     C
    C   1.0     0.300436     0.545999     0.167976  Biso 1.000000     C
    C   1.0     0.800422     0.545985     0.168038  Biso 1.000000     C
    C   1.0     0.227422     0.556313     0.136875  Biso 1.000000     C
    C   1.0     0.727408     0.556298     0.136918  Biso 1.000000     C
    C   1.0     0.182768     0.666498     0.120177  Biso 1.000000     C
    C   1.0     0.682755     0.666482     0.120201  Biso 1.000000     C
    C   1.0     0.202680     0.455590     0.120111  Biso 1.000000     C
    C   1.0     0.702666     0.455575     0.120155  Biso 1.000000     C
    C   1.0     0.222484     0.241822     0.108700  Biso 1.000000     C
    C   1.0     0.722474     0.241806     0.108755  Biso 1.000000     C
    C   1.0     0.247695     0.348595     0.124935  Biso 1.000000     C
    C   1.0     0.747682     0.348580     0.124982  Biso 1.000000     C
    C   1.0     0.319334     0.339690     0.145680  Biso 1.000000     C
    C   1.0     0.819321     0.339678     0.145726  Biso 1.000000     C
    C   1.0     0.345106     0.435585     0.170861  Biso 1.000000     C
    C   1.0     0.845092     0.435573     0.170913  Biso 1.000000     C
    C   1.0     0.412267     0.891993     0.121902  Biso 1.000000     C
    C   1.0     0.912273     0.891984     0.121956  Biso 1.000000     C
    C   1.0     0.458602     0.863335     0.236387  Biso 1.000000     C
    C   1.0     0.958601     0.863329     0.236440  Biso 1.000000     C
    C   1.0     0.030502     0.823397     0.247584  Biso 1.000000     C
    C   1.0     0.530498     0.823390     0.247527  Biso 1.000000     C
    C   1.0     0.075132     0.809088     0.353507  Biso 1.000000     C
    C   1.0     0.575132     0.809083     0.353448  Biso 1.000000     C
    C   1.0     0.050419     0.832057     0.454230  Biso 1.000000     C
    C   1.0     0.550424     0.832064     0.454178  Biso 1.000000     C
    C   1.0     0.477412     0.863245     0.443493  Biso 1.000000     C
    C   1.0     0.977402     0.863236     0.443542  Biso 1.000000     C
    C   1.0     0.432777     0.879931     0.333107  Biso 1.000000     C
    C   1.0     0.932772     0.879923     0.333154  Biso 1.000000     C
    C   1.0     0.452629     0.880146     0.544056  Biso 1.000000     C
    C   1.0     0.952616     0.880127     0.544103  Biso 1.000000     C
    C   1.0     0.472317     0.891802     0.757835  Biso 1.000000     C
    C   1.0     0.972309     0.891789     0.757893  Biso 1.000000     C
    C   1.0     0.497628     0.875377     0.651290  Biso 1.000000     C
    C   1.0     0.997613     0.875368     0.651339  Biso 1.000000     C
    C   1.0     0.069285     0.854547     0.660651  Biso 1.000000     C
    C   1.0     0.569297     0.854534     0.660604  Biso 1.000000     C
    C   1.0     0.095079     0.829249     0.564899  Biso 1.000000     C
    C   1.0     0.595087     0.829235     0.564847  Biso 1.000000     C
    C   1.0     0.337697     0.122364     0.891807  Biso 1.000000     C
    C   1.0     0.837687     0.122350     0.891835  Biso 1.000000     C
    C   1.0     0.291408     0.236726     0.863316  Biso 1.000000     C
    C   1.0     0.791397     0.236710     0.863350  Biso 1.000000     C
    C   1.0     0.219488     0.247536     0.823435  Biso 1.000000     C
    C   1.0     0.719476     0.247522     0.823486  Biso 1.000000     C
    C   1.0     0.174850     0.353223     0.809112  Biso 1.000000     C
    C   1.0     0.674837     0.353209     0.809161  Biso 1.000000     C
    C   1.0     0.199572     0.454050     0.832009  Biso 1.000000     C
    C   1.0     0.699560     0.454034     0.832041  Biso 1.000000     C
    C   1.0     0.272586     0.443736     0.863118  Biso 1.000000     C
    C   1.0     0.772574     0.443722     0.863161  Biso 1.000000     C
    C   1.0     0.317240     0.333552     0.879828  Biso 1.000000     C
    C   1.0     0.817227     0.333538     0.879870  Biso 1.000000     C
    C   1.0     0.297328     0.544459     0.879886  Biso 1.000000     C
    C   1.0     0.797316     0.544444     0.879932  Biso 1.000000     C
    C   1.0     0.277522     0.758228     0.891299  Biso 1.000000     C
    C   1.0     0.777517     0.758210     0.891386  Biso 1.000000     C
    C   1.0     0.252313     0.651454     0.875061  Biso 1.000000     C
    C   1.0     0.752301     0.651439     0.875116  Biso 1.000000     C
    C   1.0     0.180673     0.660357     0.854313  Biso 1.000000     C
    C   1.0     0.680661     0.660342     0.854362  Biso 1.000000     C
    C   1.0     0.154902     0.564462     0.829122  Biso 1.000000     C
    C   1.0     0.654890     0.564447     0.829172  Biso 1.000000     C
    O   1.0     0.058551     0.119719     0.963768  Biso 1.000000     O
    O   1.0     0.558561     0.119697     0.963809  Biso 1.000000     O
    O   1.0     0.088343     0.120722     0.251698  Biso 1.000000     O
    O   1.0     0.588342     0.120697     0.251762  Biso 1.000000     O
    O   1.0     0.486630     0.086154     0.148707  Biso 1.000000     O
    O   1.0     0.986621     0.086182     0.148677  Biso 1.000000     O
    O   1.0     0.151613     0.075688     0.888806  Biso 1.000000     O
    O   1.0     0.651614     0.075657     0.888821  Biso 1.000000     O
    O   1.0     0.191612     0.963323     0.119982  Biso 1.000000     O
    O   1.0     0.691606     0.963306     0.120020  Biso 1.000000     O
    O   1.0     0.162002     0.250838     0.121569  Biso 1.000000     O
    O   1.0     0.661991     0.250826     0.121622  Biso 1.000000     O
    O   1.0     0.263499     0.148626     0.086410  Biso 1.000000     O
    O   1.0     0.763495     0.148599     0.086504  Biso 1.000000     O
    O   1.0     0.098383     0.888434     0.075993  Biso 1.000000     O
    O   1.0     0.598374     0.888419     0.075966  Biso 1.000000     O
    O   1.0     0.441452     0.880334     0.036264  Biso 1.000000     O
    O   1.0     0.941469     0.880313     0.036329  Biso 1.000000     O
    O   1.0     0.411659     0.879333     0.748336  Biso 1.000000     O
    O   1.0     0.911661     0.879305     0.748434  Biso 1.000000     O
    O   1.0     0.013385     0.913878     0.851390  Biso 1.000000     O
    O   1.0     0.513374     0.913895     0.851346  Biso 1.000000     O
    O   1.0     0.348385     0.924384     0.111216  Biso 1.000000     O
    O   1.0     0.848389     0.924351     0.111241  Biso 1.000000     O
    O   1.0     0.308390     0.036730     0.880025  Biso 1.000000     O
    O   1.0     0.808383     0.036713     0.880059  Biso 1.000000     O
    O   1.0     0.338011     0.749209     0.878466  Biso 1.000000     O
    O   1.0     0.838001     0.749199     0.878534  Biso 1.000000     O
    O   1.0     0.236501     0.851429     0.913563  Biso 1.000000     O
    O   1.0     0.736494     0.851408     0.913652  Biso 1.000000     O
    O   1.0     0.401620     0.111627     0.924115  Biso 1.000000     O
    O   1.0     0.901613     0.111602     0.924070  Biso 1.000000     O
   Zn   1.0     0.125149     0.116962     0.117985  Biso 1.000000    Zn
   Zn   1.0     0.625151     0.116943     0.118067  Biso 1.000000    Zn
   Zn   1.0     0.374854     0.883096     0.882052  Biso 1.000000    Zn
   Zn   1.0     0.874861     0.883081     0.882175  Biso 1.000000    Zn
   Zn   1.0     0.000003     0.000009     0.000019  Biso 1.000000    Zn
   Zn   1.0     0.499999     0.000005     0.000014  Biso 1.000000    Zn
   Zn   1.0     0.249998     0.000002    -0.000002  Biso 1.000000    Zn
   Zn   1.0     0.749988     0.000005     0.000021  Biso 1.000000    Zn
