#======================================================================

# CRYSTAL DATA

#----------------------------------------------------------------------

data_VESTA_phase_1


_pd_phase_name                         MOF
_cell_length_a                         22.91500
_cell_length_b                         13.72700
_cell_length_c                         18.17800
_cell_angle_alpha                      100.36600
_cell_angle_beta                       89.95600
_cell_angle_gamma                      114.76400
_symmetry_space_group_name_H-M         "P 1"
_symmetry_Int_Tables_number            1

loop_
_symmetry_equiv_pos_as_xyz
   "x, y, z"

loop_
   _atom_site_label
   _atom_site_occupancy
   _atom_site_fract_x
   _atom_site_fract_y
   _atom_site_fract_z
   _atom_site_adp_type
   _atom_site_B_iso_or_equiv
   _atom_site_type_symbol
    H   1.0     0.075664     0.644978     0.296044  Biso 1.000000     H
    H   1.0     0.575647     0.644976     0.296044  Biso 1.000000     H
    H   1.0     0.118298     0.799067     0.225548  Biso 1.000000     H
    H   1.0     0.618286     0.799070     0.225550  Biso 1.000000     H
    H   1.0     0.118681     0.023231     0.423887  Biso 1.000000     H
    H   1.0     0.618682     0.023236     0.423894  Biso 1.000000     H
    H   1.0     0.074059     0.868481     0.493616  Biso 1.000000     H
    H   1.0     0.574053     0.868483     0.493618  Biso 1.000000     H
    H   1.0     0.395100     0.339695     0.138547  Biso 1.000000     H
    H   1.0     0.895086     0.339696     0.138547  Biso 1.000000     H
    H   1.0     0.310451     0.204858     0.039170  Biso 1.000000     H
    H   1.0     0.810439     0.204857     0.039168  Biso 1.000000     H
    H   1.0     0.310973     0.940584     0.134833  Biso 1.000000     H
    H   1.0     0.810964     0.940583     0.134827  Biso 1.000000     H
    H   1.0     0.393786     0.077355     0.236554  Biso 1.000000     H
    H   1.0     0.893775     0.077354     0.236551  Biso 1.000000     H
    H   1.0     0.070389     0.310379     0.486728  Biso 1.000000     H
    H   1.0     0.570375     0.310379     0.486727  Biso 1.000000     H
    H   1.0     0.179414     0.311391     0.487864  Biso 1.000000     H
    H   1.0     0.679400     0.311390     0.487866  Biso 1.000000     H
    H   1.0     0.214529     0.477561     0.299802  Biso 1.000000     H
    H   1.0     0.714517     0.477560     0.299802  Biso 1.000000     H
    H   1.0     0.103858     0.468873     0.307785  Biso 1.000000     H
    H   1.0     0.603845     0.468871     0.307785  Biso 1.000000     H
    H   1.0     0.246495     0.246562     0.434758  Biso 1.000000     H
    H   1.0     0.746482     0.246557     0.434757  Biso 1.000000     H
    H   1.0     0.358205     0.263306     0.440504  Biso 1.000000     H
    H   1.0     0.858191     0.263306     0.440505  Biso 1.000000     H
    H   1.0     0.426771     0.548263     0.356156  Biso 1.000000     H
    H   1.0     0.926758     0.548265     0.356159  Biso 1.000000     H
    H   1.0     0.317211     0.544012     0.345341  Biso 1.000000     H
    H   1.0     0.817196     0.544009     0.345340  Biso 1.000000     H
    H   1.0     0.252963     0.355405     0.203912  Biso 1.000000     H
    H   1.0     0.752949     0.355404     0.203911  Biso 1.000000     H
    H   1.0     0.218789     0.201287     0.274344  Biso 1.000000     H
    H   1.0     0.718774     0.201289     0.274347  Biso 1.000000     H
    H   1.0     0.107071     0.976705     0.076055  Biso 1.000000     H
    H   1.0     0.607047     0.976708     0.076062  Biso 1.000000     H
    H   1.0     0.139610     0.131461     0.006397  Biso 1.000000     H
    H   1.0     0.639590     0.131462     0.006399  Biso 1.000000     H
    H   1.0     0.225613     0.660692     0.361648  Biso 1.000000     H
    H   1.0     0.725596     0.660693     0.361647  Biso 1.000000     H
    H   1.0     0.208262     0.795236     0.461017  Biso 1.000000     H
    H   1.0     0.708240     0.795236     0.461009  Biso 1.000000     H
    H   1.0     0.340690     0.059815     0.364945  Biso 1.000000     H
    H   1.0     0.840663     0.059816     0.364932  Biso 1.000000     H
    H   1.0     0.355225     0.923310     0.263237  Biso 1.000000     H
    H   1.0     0.855201     0.923309     0.263228  Biso 1.000000     H
    H   1.0     0.415480     0.689562     0.013138  Biso 1.000000     H
    H   1.0     0.915474     0.689559     0.013134  Biso 1.000000     H
    H   1.0     0.024034     0.688698     0.012024  Biso 1.000000     H
    H   1.0     0.524032     0.688699     0.012022  Biso 1.000000     H
    H   1.0     0.475704     0.522954     0.200295  Biso 1.000000     H
    H   1.0     0.975695     0.522958     0.200296  Biso 1.000000     H
    H   1.0     0.369364     0.531584     0.192337  Biso 1.000000     H
    H   1.0     0.869356     0.531586     0.192335  Biso 1.000000     H
    H   1.0     0.123608     0.753668     0.065072  Biso 1.000000     H
    H   1.0     0.623596     0.753664     0.065074  Biso 1.000000     H
    H   1.0     0.226966     0.737077     0.059393  Biso 1.000000     H
    H   1.0     0.726957     0.737077     0.059396  Biso 1.000000     H
    H   1.0     0.152594     0.452388     0.144052  Biso 1.000000     H
    H   1.0     0.652583     0.452387     0.144053  Biso 1.000000     H
    H   1.0     0.045116     0.456505     0.154839  Biso 1.000000     H
    H   1.0     0.545105     0.456509     0.154841  Biso 1.000000     H
    H   1.0     0.424336     0.355087     0.703940  Biso 1.000000     H
    H   1.0     0.924333     0.355092     0.703946  Biso 1.000000     H
    H   1.0     0.381697     0.200991     0.774433  Biso 1.000000     H
    H   1.0     0.881693     0.200993     0.774436  Biso 1.000000     H
    H   1.0     0.381315     0.976835     0.576089  Biso 1.000000     H
    H   1.0     0.881286     0.976832     0.576083  Biso 1.000000     H
    H   1.0     0.425939     0.131590     0.506367  Biso 1.000000     H
    H   1.0     0.925918     0.131590     0.506364  Biso 1.000000     H
    H   1.0     0.104905     0.660376     0.861444  Biso 1.000000     H
    H   1.0     0.604889     0.660375     0.861444  Biso 1.000000     H
    H   1.0     0.189560     0.795211     0.960816  Biso 1.000000     H
    H   1.0     0.689542     0.795210     0.960819  Biso 1.000000     H
    H   1.0     0.189051     0.059486     0.865144  Biso 1.000000     H
    H   1.0     0.689033     0.059487     0.865149  Biso 1.000000     H
    H   1.0     0.106236     0.922718     0.763425  Biso 1.000000     H
    H   1.0     0.606218     0.922717     0.763427  Biso 1.000000     H
    H   1.0     0.429616     0.689690     0.513259  Biso 1.000000     H
    H   1.0     0.929602     0.689692     0.513259  Biso 1.000000     H
    H   1.0     0.320589     0.688673     0.512119  Biso 1.000000     H
    H   1.0     0.820577     0.688676     0.512119  Biso 1.000000     H
    H   1.0     0.285474     0.522506     0.700184  Biso 1.000000     H
    H   1.0     0.785461     0.522513     0.700187  Biso 1.000000     H
    H   1.0     0.396147     0.531201     0.692203  Biso 1.000000     H
    H   1.0     0.896132     0.531201     0.692204  Biso 1.000000     H
    H   1.0     0.253509     0.753505     0.565223  Biso 1.000000     H
    H   1.0     0.753495     0.753510     0.565226  Biso 1.000000     H
    H   1.0     0.141800     0.736763     0.559478  Biso 1.000000     H
    H   1.0     0.641786     0.736764     0.559481  Biso 1.000000     H
    H   1.0     0.073233     0.451808     0.643830  Biso 1.000000     H
    H   1.0     0.573218     0.451807     0.643828  Biso 1.000000     H
    H   1.0     0.182795     0.456060     0.654645  Biso 1.000000     H
    H   1.0     0.682780     0.456060     0.654644  Biso 1.000000     H
    H   1.0     0.247046     0.644660     0.796074  Biso 1.000000     H
    H   1.0     0.747025     0.644666     0.796079  Biso 1.000000     H
    H   1.0     0.281219     0.798772     0.725637  Biso 1.000000     H
    H   1.0     0.781205     0.798777     0.725640  Biso 1.000000     H
    H   1.0     0.392941     0.023360     0.923920  Biso 1.000000     H
    H   1.0     0.892950     0.023355     0.923914  Biso 1.000000     H
    H   1.0     0.360405     0.868609     0.993585  Biso 1.000000     H
    H   1.0     0.860402     0.868607     0.993583  Biso 1.000000     H
    H   1.0     0.274391     0.339382     0.638341  Biso 1.000000     H
    H   1.0     0.774385     0.339385     0.638346  Biso 1.000000     H
    H   1.0     0.291744     0.204840     0.538974  Biso 1.000000     H
    H   1.0     0.791740     0.204843     0.538981  Biso 1.000000     H
    H   1.0     0.159308     0.940258     0.635036  Biso 1.000000     H
    H   1.0     0.659311     0.940259     0.635050  Biso 1.000000     H
    H   1.0     0.144776     0.076762     0.736750  Biso 1.000000     H
    H   1.0     0.644773     0.076765     0.736756  Biso 1.000000     H
    H   1.0     0.084516     0.310502     0.986848  Biso 1.000000     H
    H   1.0     0.584512     0.310509     0.986850  Biso 1.000000     H
    H   1.0     0.475959     0.311363     0.987961  Biso 1.000000     H
    H   1.0     0.975956     0.311361     0.987956  Biso 1.000000     H
    H   1.0     0.024299     0.477115     0.799691  Biso 1.000000     H
    H   1.0     0.524287     0.477106     0.799686  Biso 1.000000     H
    H   1.0     0.130638     0.468489     0.807654  Biso 1.000000     H
    H   1.0     0.630629     0.468486     0.807650  Biso 1.000000     H
    H   1.0     0.376394     0.246401     0.934909  Biso 1.000000     H
    H   1.0     0.876383     0.246401     0.934912  Biso 1.000000     H
    H   1.0     0.273035     0.262992     0.940589  Biso 1.000000     H
    H   1.0     0.773026     0.262994     0.940590  Biso 1.000000     H
    H   1.0     0.347411     0.547686     0.855937  Biso 1.000000     H
    H   1.0     0.847401     0.547686     0.855935  Biso 1.000000     H
    H   1.0     0.454888     0.543560     0.845147  Biso 1.000000     H
    H   1.0     0.954878     0.543563     0.845144  Biso 1.000000     H
    C   1.0     0.044643     0.654070     0.439742  Biso 1.000000     C
    C   1.0     0.544661     0.654086     0.439757  Biso 1.000000     C
    C   1.0     0.071202     0.747189     0.398523  Biso 1.000000     C
    C   1.0     0.571169     0.747183     0.398516  Biso 1.000000     C
    C   1.0     0.084402     0.727991     0.322968  Biso 1.000000     C
    C   1.0     0.584383     0.727988     0.322968  Biso 1.000000     C
    C   1.0     0.107955     0.812858     0.283925  Biso 1.000000     C
    C   1.0     0.607932     0.812854     0.283923  Biso 1.000000     C
    C   1.0     0.119458     0.919622     0.320366  Biso 1.000000     C
    C   1.0     0.619452     0.919623     0.320368  Biso 1.000000     C
    C   1.0     0.108199     0.939648     0.396361  Biso 1.000000     C
    C   1.0     0.608191     0.939652     0.396362  Biso 1.000000     C
    C   1.0     0.083491     0.853903     0.434886  Biso 1.000000     C
    C   1.0     0.583479     0.853906     0.434885  Biso 1.000000     C
    C   1.0     0.445912     0.297877     0.257557  Biso 1.000000     C
    C   1.0     0.945887     0.297883     0.257563  Biso 1.000000     C
    C   1.0     0.399678     0.216265     0.193716  Biso 1.000000     C
    C   1.0     0.899672     0.216264     0.193708  Biso 1.000000     C
    C   1.0     0.376913     0.252179     0.136968  Biso 1.000000     C
    C   1.0     0.876894     0.252179     0.136972  Biso 1.000000     C
    C   1.0     0.330361     0.177682     0.081300  Biso 1.000000     C
    C   1.0     0.830351     0.177681     0.081296  Biso 1.000000     C
    C   1.0     0.306315     0.064633     0.080139  Biso 1.000000     C
    C   1.0     0.806299     0.064633     0.080141  Biso 1.000000     C
    C   1.0     0.329797     0.028173     0.135935  Biso 1.000000     C
    C   1.0     0.829791     0.028172     0.135928  Biso 1.000000     C
    C   1.0     0.375782     0.103710     0.192185  Biso 1.000000     C
    C   1.0     0.875765     0.103710     0.192188  Biso 1.000000     C
    C   1.0     0.104024     0.345649     0.446188  Biso 1.000000     C
    C   1.0     0.604011     0.345645     0.446187  Biso 1.000000     C
    C   1.0     0.164667     0.345756     0.445729  Biso 1.000000     C
    C   1.0     0.664656     0.345761     0.445732  Biso 1.000000     C
    C   1.0     0.206691     0.393395     0.392973  Biso 1.000000     C
    C   1.0     0.706676     0.393386     0.392969  Biso 1.000000     C
    C   1.0     0.184333     0.438240     0.341896  Biso 1.000000     C
    C   1.0     0.684322     0.438247     0.341899  Biso 1.000000     C
    C   1.0     0.122926     0.434717     0.346195  Biso 1.000000     C
    C   1.0     0.622912     0.434712     0.346193  Biso 1.000000     C
    C   1.0     0.272155     0.397133     0.392811  Biso 1.000000     C
    C   1.0     0.772142     0.397137     0.392817  Biso 1.000000     C
    C   1.0     0.284943     0.316916     0.418503  Biso 1.000000     C
    C   1.0     0.784928     0.316910     0.418498  Biso 1.000000     C
    C   1.0     0.347416     0.325409     0.421665  Biso 1.000000     C
    C   1.0     0.847402     0.325411     0.421670  Biso 1.000000     C
    C   1.0     0.385395     0.483709     0.373977  Biso 1.000000     C
    C   1.0     0.885383     0.483712     0.373984  Biso 1.000000     C
    C   1.0     0.324107     0.480954     0.368297  Biso 1.000000     C
    C   1.0     0.824092     0.480947     0.368292  Biso 1.000000     C
    C   1.0     0.217233     0.346086     0.060293  Biso 1.000000     C
    C   1.0     0.717250     0.346066     0.060272  Biso 1.000000     C
    C   1.0     0.197375     0.252963     0.101474  Biso 1.000000     C
    C   1.0     0.697336     0.252970     0.101485  Biso 1.000000     C
    C   1.0     0.220225     0.272291     0.176998  Biso 1.000000     C
    C   1.0     0.720227     0.272283     0.176992  Biso 1.000000     C
    C   1.0     0.201485     0.187406     0.215999  Biso 1.000000     C
    C   1.0     0.701463     0.187409     0.216005  Biso 1.000000     C
    C   1.0     0.159641     0.080525     0.179566  Biso 1.000000     C
    C   1.0     0.659638     0.080522     0.179563  Biso 1.000000     C
    C   1.0     0.138342     0.060372     0.103587  Biso 1.000000     C
    C   1.0     0.638311     0.060379     0.103595  Biso 1.000000     C
    C   1.0     0.156360     0.146127     0.065111  Biso 1.000000     C
    C   1.0     0.656359     0.146124     0.065105  Biso 1.000000     C
    C   1.0     0.297266     0.702729     0.242446  Biso 1.000000     C
    C   1.0     0.797279     0.702741     0.242455  Biso 1.000000     C
    C   1.0     0.291813     0.784270     0.306282  Biso 1.000000     C
    C   1.0     0.791784     0.784269     0.306270  Biso 1.000000     C
    C   1.0     0.251076     0.748213     0.363103  Biso 1.000000     C
    C   1.0     0.751077     0.748214     0.363115  Biso 1.000000     C
    C   1.0     0.241734     0.822561     0.418795  Biso 1.000000     C
    C   1.0     0.741713     0.822560     0.418788  Biso 1.000000     C
    C   1.0     0.274083     0.935619     0.419832  Biso 1.000000     C
    C   1.0     0.774074     0.935619     0.419835  Biso 1.000000     C
    C   1.0     0.315791     0.972225     0.363942  Biso 1.000000     C
    C   1.0     0.815761     0.972226     0.363928  Biso 1.000000     C
    C   1.0     0.324042     0.896833     0.307665  Biso 1.000000     C
    C   1.0     0.824038     0.896834     0.307674  Biso 1.000000     C
    C   1.0     0.431412     0.654415     0.053725  Biso 1.000000     C
    C   1.0     0.931405     0.654415     0.053724  Biso 1.000000     C
    C   1.0     0.492014     0.654367     0.054188  Biso 1.000000     C
    C   1.0     0.992006     0.654362     0.054187  Biso 1.000000     C
    C   1.0     0.010131     0.606897     0.107016  Biso 1.000000     C
    C   1.0     0.510121     0.606892     0.107014  Biso 1.000000     C
    C   1.0     0.465226     0.562117     0.158140  Biso 1.000000     C
    C   1.0     0.965220     0.562117     0.158136  Biso 1.000000     C
    C   1.0     0.405581     0.565600     0.153854  Biso 1.000000     C
    C   1.0     0.905575     0.565604     0.153854  Biso 1.000000     C
    C   1.0     0.073733     0.603211     0.107176  Biso 1.000000     C
    C   1.0     0.573723     0.603211     0.107178  Biso 1.000000     C
    C   1.0     0.126778     0.683416     0.081432  Biso 1.000000     C
    C   1.0     0.626768     0.683414     0.081434  Biso 1.000000     C
    C   1.0     0.185016     0.674996     0.078295  Biso 1.000000     C
    C   1.0     0.685007     0.674997     0.078297  Biso 1.000000     C
    C   1.0     0.143586     0.516847     0.126153  Biso 1.000000     C
    C   1.0     0.643576     0.516847     0.126155  Biso 1.000000     C
    C   1.0     0.083654     0.519533     0.131823  Biso 1.000000     C
    C   1.0     0.583645     0.519534     0.131823  Biso 1.000000     C
    C   1.0     0.455329     0.345984     0.560232  Biso 1.000000     C
    C   1.0     0.955312     0.345983     0.560229  Biso 1.000000     C
    C   1.0     0.428816     0.252883     0.601469  Biso 1.000000     C
    C   1.0     0.928811     0.252888     0.601471  Biso 1.000000     C
    C   1.0     0.415603     0.272077     0.677018  Biso 1.000000     C
    C   1.0     0.915594     0.272080     0.677019  Biso 1.000000     C
    C   1.0     0.392053     0.187209     0.716060  Biso 1.000000     C
    C   1.0     0.892047     0.187212     0.716062  Biso 1.000000     C
    C   1.0     0.380539     0.080442     0.679615  Biso 1.000000     C
    C   1.0     0.880522     0.080442     0.679613  Biso 1.000000     C
    C   1.0     0.391801     0.060417     0.603621  Biso 1.000000     C
    C   1.0     0.891782     0.060416     0.603618  Biso 1.000000     C
    C   1.0     0.416513     0.146165     0.565100  Biso 1.000000     C
    C   1.0     0.916493     0.146164     0.565097  Biso 1.000000     C
    C   1.0     0.054104     0.702193     0.742430  Biso 1.000000     C
    C   1.0     0.554097     0.702189     0.742427  Biso 1.000000     C
    C   1.0     0.100332     0.783808     0.806274  Biso 1.000000     C
    C   1.0     0.600309     0.783809     0.806282  Biso 1.000000     C
    C   1.0     0.123099     0.747893     0.863018  Biso 1.000000     C
    C   1.0     0.623086     0.747892     0.863017  Biso 1.000000     C
    C   1.0     0.169651     0.822389     0.918687  Biso 1.000000     C
    C   1.0     0.669631     0.822390     0.918692  Biso 1.000000     C
    C   1.0     0.193705     0.935437     0.919841  Biso 1.000000     C
    C   1.0     0.693690     0.935437     0.919840  Biso 1.000000     C
    C   1.0     0.170223     0.971898     0.864045  Biso 1.000000     C
    C   1.0     0.670201     0.971898     0.864051  Biso 1.000000     C
    C   1.0     0.124239     0.896363     0.807795  Biso 1.000000     C
    C   1.0     0.624224     0.896362     0.807794  Biso 1.000000     C
    C   1.0     0.395979     0.654415     0.553796  Biso 1.000000     C
    C   1.0     0.895968     0.654425     0.553800  Biso 1.000000     C
    C   1.0     0.335337     0.654317     0.554259  Biso 1.000000     C
    C   1.0     0.835322     0.654310     0.554255  Biso 1.000000     C
    C   1.0     0.293310     0.606664     0.607007  Biso 1.000000     C
    C   1.0     0.793300     0.606680     0.607015  Biso 1.000000     C
    C   1.0     0.315672     0.561835     0.658093  Biso 1.000000     C
    C   1.0     0.815657     0.561828     0.658089  Biso 1.000000     C
    C   1.0     0.377076     0.565349     0.653790  Biso 1.000000     C
    C   1.0     0.877065     0.565360     0.653795  Biso 1.000000     C
    C   1.0     0.227849     0.602936     0.607173  Biso 1.000000     C
    C   1.0     0.727835     0.602933     0.607169  Biso 1.000000     C
    C   1.0     0.215061     0.683153     0.581480  Biso 1.000000     C
    C   1.0     0.715048     0.683158     0.581486  Biso 1.000000     C
    C   1.0     0.152589     0.674660     0.578318  Biso 1.000000     C
    C   1.0     0.652575     0.674659     0.578316  Biso 1.000000     C
    C   1.0     0.114610     0.516362     0.626009  Biso 1.000000     C
    C   1.0     0.614595     0.516358     0.626003  Biso 1.000000     C
    C   1.0     0.175899     0.519119     0.631690  Biso 1.000000     C
    C   1.0     0.675885     0.519123     0.631694  Biso 1.000000     C
    C   1.0     0.282762     0.653993     0.939706  Biso 1.000000     C
    C   1.0     0.782717     0.654013     0.939730  Biso 1.000000     C
    C   1.0     0.302644     0.747100     0.898507  Biso 1.000000     C
    C   1.0     0.802657     0.747093     0.898497  Biso 1.000000     C
    C   1.0     0.279771     0.727780     0.822991  Biso 1.000000     C
    C   1.0     0.779748     0.727786     0.822998  Biso 1.000000     C
    C   1.0     0.298524     0.812657     0.783982  Biso 1.000000     C
    C   1.0     0.798522     0.812655     0.783979  Biso 1.000000     C
    C   1.0     0.340360     0.919543     0.820418  Biso 1.000000     C
    C   1.0     0.840343     0.919545     0.820421  Biso 1.000000     C
    C   1.0     0.361676     0.939690     0.896390  Biso 1.000000     C
    C   1.0     0.861685     0.939684     0.896383  Biso 1.000000     C
    C   1.0     0.343638     0.853943     0.934877  Biso 1.000000     C
    C   1.0     0.843626     0.853944     0.934879  Biso 1.000000     C
    C   1.0     0.202734     0.297342     0.757544  Biso 1.000000     C
    C   1.0     0.702694     0.297329     0.757534  Biso 1.000000     C
    C   1.0     0.208189     0.215805     0.693705  Biso 1.000000     C
    C   1.0     0.708196     0.215807     0.693720  Biso 1.000000     C
    C   1.0     0.248923     0.251861     0.636880  Biso 1.000000     C
    C   1.0     0.748900     0.251863     0.636873  Biso 1.000000     C
    C   1.0     0.258267     0.177513     0.581191  Biso 1.000000     C
    C   1.0     0.758267     0.177518     0.581201  Biso 1.000000     C
    C   1.0     0.225916     0.064454     0.580153  Biso 1.000000     C
    C   1.0     0.725902     0.064458     0.580151  Biso 1.000000     C
    C   1.0     0.184206     0.027849     0.636041  Biso 1.000000     C
    C   1.0     0.684214     0.027850     0.636057  Biso 1.000000     C
    C   1.0     0.175953     0.103242     0.692316  Biso 1.000000     C
    C   1.0     0.675935     0.103241     0.692310  Biso 1.000000     C
    C   1.0     0.068585     0.345646     0.946258  Biso 1.000000     C
    C   1.0     0.568579     0.345649     0.946259  Biso 1.000000     C
    C   1.0     0.007985     0.345704     0.945796  Biso 1.000000     C
    C   1.0     0.507979     0.345701     0.945798  Biso 1.000000     C
    C   1.0     0.489869     0.393166     0.892967  Biso 1.000000     C
    C   1.0     0.989861     0.393166     0.892966  Biso 1.000000     C
    C   1.0     0.034775     0.437956     0.841851  Biso 1.000000     C
    C   1.0     0.534767     0.437951     0.841846  Biso 1.000000     C
    C   1.0     0.094418     0.434465     0.846132  Biso 1.000000     C
    C   1.0     0.594411     0.434463     0.846130  Biso 1.000000     C
    C   1.0     0.426269     0.396854     0.892806  Biso 1.000000     C
    C   1.0     0.926261     0.396860     0.892810  Biso 1.000000     C
    C   1.0     0.373223     0.316652     0.918550  Biso 1.000000     C
    C   1.0     0.873214     0.316651     0.918549  Biso 1.000000     C
    C   1.0     0.314985     0.325072     0.921688  Biso 1.000000     C
    C   1.0     0.814977     0.325076     0.921691  Biso 1.000000     C
    C   1.0     0.356418     0.483223     0.873833  Biso 1.000000     C
    C   1.0     0.856409     0.483227     0.873835  Biso 1.000000     C
    C   1.0     0.416348     0.480534     0.868164  Biso 1.000000     C
    C   1.0     0.916339     0.480535     0.868159  Biso 1.000000     C
    N   1.0     0.083161     0.389981     0.397665  Biso 1.000000     N
    N   1.0     0.583150     0.389986     0.397669  Biso 1.000000     N
    N   1.0     0.397721     0.408763     0.401492  Biso 1.000000     N
    N   1.0     0.897709     0.408761     0.401491  Biso 1.000000     N
    N   1.0     0.142338     0.011847     0.285840  Biso 1.000000     N
    N   1.0     0.642379     0.011852     0.285848  Biso 1.000000     N
    N   1.0     0.258209     0.982479     0.026727  Biso 1.000000     N
    N   1.0     0.758207     0.982476     0.026717  Biso 1.000000     N
    N   1.0     0.388276     0.610154     0.102301  Biso 1.000000     N
    N   1.0     0.888268     0.610147     0.102297  Biso 1.000000     N
    N   1.0     0.193534     0.591775     0.098592  Biso 1.000000     N
    N   1.0     0.693524     0.591774     0.098593  Biso 1.000000     N
    N   1.0     0.136591     0.988286     0.214069  Biso 1.000000     N
    N   1.0     0.636515     0.988291     0.214078  Biso 1.000000     N
    N   1.0     0.267077     0.017664     0.473290  Biso 1.000000     N
    N   1.0     0.767003     0.017647     0.473244  Biso 1.000000     N
    N   1.0     0.416845     0.610099     0.602326  Biso 1.000000     N
    N   1.0     0.916829     0.610089     0.602321  Biso 1.000000     N
    N   1.0     0.102282     0.591305     0.598492  Biso 1.000000     N
    N   1.0     0.602269     0.591311     0.598497  Biso 1.000000     N
    N   1.0     0.357609     0.988213     0.714134  Biso 1.000000     N
    N   1.0     0.857604     0.988212     0.714132  Biso 1.000000     N
    N   1.0     0.241809     0.017591     0.973255  Biso 1.000000     N
    N   1.0     0.741784     0.017593     0.973264  Biso 1.000000     N
    N   1.0     0.111726     0.389923     0.897690  Biso 1.000000     N
    N   1.0     0.611719     0.389925     0.897690  Biso 1.000000     N
    N   1.0     0.306469     0.408296     0.901394  Biso 1.000000     N
    N   1.0     0.806459     0.408296     0.901393  Biso 1.000000     N
    N   1.0     0.363475     0.011776     0.785905  Biso 1.000000     N
    N   1.0     0.863467     0.011774     0.785903  Biso 1.000000     N
    N   1.0     0.232921     0.982411     0.526692  Biso 1.000000     N
    N   1.0     0.732973     0.982431     0.526741  Biso 1.000000     N
    O   1.0     0.042056     0.562614     0.406233  Biso 1.000000     O
    O   1.0     0.542033     0.562612     0.406226  Biso 1.000000     O
    O   1.0     0.479802     0.394721     0.250014  Biso 1.000000     O
    O   1.0     0.979796     0.394716     0.250011  Biso 1.000000     O
    O   1.0     0.446069     0.263132     0.318907  Biso 1.000000     O
    O   1.0     0.946056     0.263134     0.318909  Biso 1.000000     O
    O   1.0     0.026831     0.674663     0.505046  Biso 1.000000     O
    O   1.0     0.526805     0.674657     0.505039  Biso 1.000000     O
    O   1.0     0.260252     0.437749     0.093844  Biso 1.000000     O
    O   1.0     0.760223     0.437753     0.093853  Biso 1.000000     O
    O   1.0     0.282741     0.605968     0.250051  Biso 1.000000     O
    O   1.0     0.782712     0.605962     0.250045  Biso 1.000000     O
    O   1.0     0.314967     0.737463     0.181101  Biso 1.000000     O
    O   1.0     0.814947     0.737458     0.181097  Biso 1.000000     O
    O   1.0     0.189181     0.325238     0.994949  Biso 1.000000     O
    O   1.0     0.689154     0.325245     0.994957  Biso 1.000000     O
    O   1.0     0.457957     0.437457     0.593765  Biso 1.000000     O
    O   1.0     0.957953     0.437463     0.593768  Biso 1.000000     O
    O   1.0     0.020199     0.605359     0.749981  Biso 1.000000     O
    O   1.0     0.520183     0.605360     0.749982  Biso 1.000000     O
    O   1.0     0.053938     0.736939     0.681081  Biso 1.000000     O
    O   1.0     0.553921     0.736941     0.681084  Biso 1.000000     O
    O   1.0     0.473178     0.325411     0.494945  Biso 1.000000     O
    O   1.0     0.973175     0.325417     0.494949  Biso 1.000000     O
    O   1.0     0.239763     0.562317     0.906145  Biso 1.000000     O
    O   1.0     0.739766     0.562312     0.906136  Biso 1.000000     O
    O   1.0     0.217267     0.394109     0.749949  Biso 1.000000     O
    O   1.0     0.717269     0.394114     0.749953  Biso 1.000000     O
    O   1.0     0.185040     0.262603     0.818890  Biso 1.000000     O
    O   1.0     0.685044     0.262608     0.818895  Biso 1.000000     O
    O   1.0     0.310837     0.674830     0.005036  Biso 1.000000     O
    O   1.0     0.810836     0.674823     0.005030  Biso 1.000000     O
   Zn   1.0     0.491004     0.398150     0.403155  Biso 1.000000    Zn
   Zn   1.0     0.990997     0.398150     0.403156  Biso 1.000000    Zn
   Zn   1.0     0.292195     0.602283     0.096886  Biso 1.000000    Zn
   Zn   1.0     0.792184     0.602285     0.096884  Biso 1.000000    Zn
   Zn   1.0     0.008994     0.601924     0.596840  Biso 1.000000    Zn
   Zn   1.0     0.508985     0.601924     0.596838  Biso 1.000000    Zn
   Zn   1.0     0.207811     0.397787     0.903106  Biso 1.000000    Zn
   Zn   1.0     0.707800     0.397784     0.903108  Biso 1.000000    Zn
