#======================================================================

# CRYSTAL DATA

#----------------------------------------------------------------------

data_VESTA_phase_1


_pd_phase_name                         MOF
_cell_length_a                         22.68400
_cell_length_b                         12.99000
_cell_length_c                         12.98600
_cell_angle_alpha                      117.49500
_cell_angle_beta                       94.95500
_cell_angle_gamma                      85.03900
_symmetry_space_group_name_H-M         "P 1"
_symmetry_Int_Tables_number            1

loop_
_symmetry_equiv_pos_as_xyz
   "x, y, z"

loop_
   _atom_site_label
   _atom_site_occupancy
   _atom_site_fract_x
   _atom_site_fract_y
   _atom_site_fract_z
   _atom_site_adp_type
   _atom_site_B_iso_or_equiv
   _atom_site_type_symbol
    H   1.0     0.373653     0.796551     0.302664  Biso 1.000000     H
    H   1.0     0.873655     0.796550     0.302664  Biso 1.000000     H
    H   1.0     0.057915     0.747437     0.388196  Biso 1.000000     H
    H   1.0     0.557917     0.747438     0.388196  Biso 1.000000     H
    H   1.0     0.041558     0.900337     0.591644  Biso 1.000000     H
    H   1.0     0.541560     0.900337     0.591644  Biso 1.000000     H
    H   1.0     0.094591     0.818525     0.968980  Biso 1.000000     H
    H   1.0     0.594593     0.818526     0.968981  Biso 1.000000     H
    H   1.0     0.422783     0.705812     0.806305  Biso 1.000000     H
    H   1.0     0.922785     0.705814     0.806307  Biso 1.000000     H
    H   1.0     0.417088     0.864601     0.744304  Biso 1.000000     H
    H   1.0     0.917090     0.864604     0.744308  Biso 1.000000     H
    H   1.0     0.376356     0.302643     0.796578  Biso 1.000000     H
    H   1.0     0.876358     0.302643     0.796578  Biso 1.000000     H
    H   1.0     0.192100     0.388163     0.747370  Biso 1.000000     H
    H   1.0     0.692102     0.388163     0.747370  Biso 1.000000     H
    H   1.0     0.208442     0.591575     0.900258  Biso 1.000000     H
    H   1.0     0.708444     0.591575     0.900257  Biso 1.000000     H
    H   1.0     0.155410     0.969065     0.818737  Biso 1.000000     H
    H   1.0     0.655413     0.969066     0.818738  Biso 1.000000     H
    H   1.0     0.327199     0.806330     0.705829  Biso 1.000000     H
    H   1.0     0.827201     0.806329     0.705828  Biso 1.000000     H
    H   1.0     0.332887     0.744224     0.864578  Biso 1.000000     H
    H   1.0     0.832889     0.744223     0.864578  Biso 1.000000     H
    H   1.0     0.126350     0.203447     0.697354  Biso 1.000000     H
    H   1.0     0.626353     0.203446     0.697355  Biso 1.000000     H
    H   1.0     0.442089     0.252563     0.611822  Biso 1.000000     H
    H   1.0     0.942091     0.252564     0.611822  Biso 1.000000     H
    H   1.0     0.458446     0.099664     0.408374  Biso 1.000000     H
    H   1.0     0.958448     0.099664     0.408374  Biso 1.000000     H
    H   1.0     0.405411     0.181473     0.031040  Biso 1.000000     H
    H   1.0     0.905413     0.181474     0.031042  Biso 1.000000     H
    H   1.0     0.077222     0.294177     0.193702  Biso 1.000000     H
    H   1.0     0.577223     0.294180     0.193705  Biso 1.000000     H
    H   1.0     0.082918     0.135385     0.255700  Biso 1.000000     H
    H   1.0     0.582919     0.135390     0.255706  Biso 1.000000     H
    H   1.0     0.123647     0.697353     0.203440  Biso 1.000000     H
    H   1.0     0.623649     0.697353     0.203440  Biso 1.000000     H
    H   1.0     0.307904     0.611835     0.252644  Biso 1.000000     H
    H   1.0     0.807906     0.611835     0.252643  Biso 1.000000     H
    H   1.0     0.291562     0.408423     0.099755  Biso 1.000000     H
    H   1.0     0.791564     0.408423     0.099755  Biso 1.000000     H
    H   1.0     0.344591     0.030929     0.181279  Biso 1.000000     H
    H   1.0     0.844594     0.030931     0.181281  Biso 1.000000     H
    H   1.0     0.172805     0.193679     0.294196  Biso 1.000000     H
    H   1.0     0.672807     0.193675     0.294193  Biso 1.000000     H
    H   1.0     0.167119     0.255785     0.135446  Biso 1.000000     H
    H   1.0     0.667120     0.255781     0.135444  Biso 1.000000     H
    C   1.0     0.474859     0.662922     0.208670  Biso 1.000000     C
    C   1.0     0.974861     0.662921     0.208670  Biso 1.000000     C
    C   1.0     0.466504     0.757588     0.330230  Biso 1.000000     C
    C   1.0     0.966506     0.757585     0.330231  Biso 1.000000     C
    C   1.0     0.411911     0.816916     0.364068  Biso 1.000000     C
    C   1.0     0.911914     0.816915     0.364068  Biso 1.000000     C
    C   1.0     0.014201     0.789632     0.413124  Biso 1.000000     C
    C   1.0     0.514203     0.789633     0.413124  Biso 1.000000     C
    C   1.0     0.005266     0.874597     0.525663  Biso 1.000000     C
    C   1.0     0.505268     0.874596     0.525663  Biso 1.000000     C
    C   1.0     0.448796     0.928834     0.553772  Biso 1.000000     C
    C   1.0     0.948799     0.928834     0.553772  Biso 1.000000     C
    C   1.0     0.003113     0.922830     0.827806  Biso 1.000000     C
    C   1.0     0.503115     0.922830     0.827806  Biso 1.000000     C
    C   1.0     0.054338     0.826178     0.920083  Biso 1.000000     C
    C   1.0     0.554340     0.826176     0.920082  Biso 1.000000     C
    C   1.0     0.008473     0.750668     0.893515  Biso 1.000000     C
    C   1.0     0.508476     0.750664     0.893510  Biso 1.000000     C
    C   1.0     0.458549     0.764400     0.828640  Biso 1.000000     C
    C   1.0     0.958551     0.764403     0.828645  Biso 1.000000     C
    C   1.0     0.010286     0.659906     0.934888  Biso 1.000000     C
    C   1.0     0.510289     0.659906     0.934889  Biso 1.000000     C
    C   1.0     0.455377     0.851117     0.793967  Biso 1.000000     C
    C   1.0     0.955380     0.851115     0.793965  Biso 1.000000     C
    C   1.0     0.275157     0.208654     0.662922  Biso 1.000000     C
    C   1.0     0.775159     0.208654     0.662921  Biso 1.000000     C
    C   1.0     0.283509     0.330205     0.757561  Biso 1.000000     C
    C   1.0     0.783511     0.330205     0.757560  Biso 1.000000     C
    C   1.0     0.338096     0.364036     0.816911  Biso 1.000000     C
    C   1.0     0.838098     0.364036     0.816911  Biso 1.000000     C
    C   1.0     0.235810     0.413091     0.789574  Biso 1.000000     C
    C   1.0     0.735812     0.413092     0.789573  Biso 1.000000     C
    C   1.0     0.244734     0.525601     0.874553  Biso 1.000000     C
    C   1.0     0.744737     0.525601     0.874554  Biso 1.000000     C
    C   1.0     0.301201     0.553703     0.928805  Biso 1.000000     C
    C   1.0     0.801203     0.553702     0.928805  Biso 1.000000     C
    C   1.0     0.246872     0.827769     0.922913  Biso 1.000000     C
    C   1.0     0.746874     0.827768     0.922913  Biso 1.000000     C
    C   1.0     0.195659     0.920136     0.826336  Biso 1.000000     C
    C   1.0     0.695661     0.920137     0.826336  Biso 1.000000     C
    C   1.0     0.241519     0.893565     0.750777  Biso 1.000000     C
    C   1.0     0.741521     0.893565     0.750777  Biso 1.000000     C
    C   1.0     0.291435     0.828646     0.764447  Biso 1.000000     C
    C   1.0     0.791437     0.828646     0.764447  Biso 1.000000     C
    C   1.0     0.239704     0.934976     0.660026  Biso 1.000000     C
    C   1.0     0.739707     0.934976     0.660026  Biso 1.000000     C
    C   1.0     0.294611     0.793951     0.851165  Biso 1.000000     C
    C   1.0     0.794613     0.793950     0.851165  Biso 1.000000     C
    C   1.0     0.025144     0.337077     0.791348  Biso 1.000000     C
    C   1.0     0.525147     0.337079     0.791347  Biso 1.000000     C
    C   1.0     0.033499     0.242413     0.669787  Biso 1.000000     C
    C   1.0     0.533502     0.242412     0.669788  Biso 1.000000     C
    C   1.0     0.088092     0.183083     0.635951  Biso 1.000000     C
    C   1.0     0.588094     0.183082     0.635951  Biso 1.000000     C
    C   1.0     0.485802     0.210367     0.586895  Biso 1.000000     C
    C   1.0     0.985805     0.210367     0.586894  Biso 1.000000     C
    C   1.0     0.494738     0.125406     0.474355  Biso 1.000000     C
    C   1.0     0.994740     0.125404     0.474355  Biso 1.000000     C
    C   1.0     0.051207     0.071165     0.446246  Biso 1.000000     C
    C   1.0     0.551209     0.071165     0.446246  Biso 1.000000     C
    C   1.0     0.496890     0.077166     0.172211  Biso 1.000000     C
    C   1.0     0.996892     0.077165     0.172211  Biso 1.000000     C
    C   1.0     0.445664     0.173822     0.079938  Biso 1.000000     C
    C   1.0     0.945666     0.173820     0.079937  Biso 1.000000     C
    C   1.0     0.491529     0.249332     0.106507  Biso 1.000000     C
    C   1.0     0.991532     0.249327     0.106502  Biso 1.000000     C
    C   1.0     0.041455     0.235589     0.171367  Biso 1.000000     C
    C   1.0     0.541457     0.235594     0.171373  Biso 1.000000     C
    C   1.0     0.489715     0.340091     0.065130  Biso 1.000000     C
    C   1.0     0.989718     0.340090     0.065130  Biso 1.000000     C
    C   1.0     0.044626     0.148878     0.206047  Biso 1.000000     C
    C   1.0     0.544629     0.148877     0.206046  Biso 1.000000     C
    C   1.0     0.224847     0.791342     0.337097  Biso 1.000000     C
    C   1.0     0.724849     0.791342     0.337095  Biso 1.000000     C
    C   1.0     0.216494     0.669791     0.242458  Biso 1.000000     C
    C   1.0     0.716497     0.669792     0.242456  Biso 1.000000     C
    C   1.0     0.161907     0.635961     0.183108  Biso 1.000000     C
    C   1.0     0.661910     0.635961     0.183107  Biso 1.000000     C
    C   1.0     0.264194     0.586905     0.210442  Biso 1.000000     C
    C   1.0     0.764196     0.586906     0.210441  Biso 1.000000     C
    C   1.0     0.255269     0.474397     0.125459  Biso 1.000000     C
    C   1.0     0.755272     0.474397     0.125460  Biso 1.000000     C
    C   1.0     0.198802     0.446295     0.071211  Biso 1.000000     C
    C   1.0     0.698805     0.446295     0.071211  Biso 1.000000     C
    C   1.0     0.253131     0.172231     0.077106  Biso 1.000000     C
    C   1.0     0.753134     0.172231     0.077106  Biso 1.000000     C
    C   1.0     0.304343     0.079860     0.173682  Biso 1.000000     C
    C   1.0     0.804346     0.079861     0.173683  Biso 1.000000     C
    C   1.0     0.258484     0.106435     0.249242  Biso 1.000000     C
    C   1.0     0.758486     0.106434     0.249242  Biso 1.000000     C
    C   1.0     0.208569     0.171358     0.235575  Biso 1.000000     C
    C   1.0     0.708571     0.171356     0.235574  Biso 1.000000     C
    C   1.0     0.260297     0.065022     0.339992  Biso 1.000000     C
    C   1.0     0.760300     0.065021     0.339992  Biso 1.000000     C
    C   1.0     0.205394     0.206054     0.148857  Biso 1.000000     C
    C   1.0     0.705395     0.206052     0.148856  Biso 1.000000     C
    N   1.0     0.051747     0.911570     0.888479  Biso 1.000000     N
    N   1.0     0.551749     0.911569     0.888479  Biso 1.000000     N
    N   1.0     0.402655     0.901567     0.473368  Biso 1.000000     N
    N   1.0     0.902658     0.901567     0.473368  Biso 1.000000     N
    N   1.0     0.198243     0.888472     0.911704  Biso 1.000000     N
    N   1.0     0.698246     0.888472     0.911704  Biso 1.000000     N
    N   1.0     0.347345     0.473317     0.901557  Biso 1.000000     N
    N   1.0     0.847348     0.473317     0.901556  Biso 1.000000     N
    N   1.0     0.448255     0.088429     0.111540  Biso 1.000000     N
    N   1.0     0.948258     0.088427     0.111540  Biso 1.000000     N
    N   1.0     0.097347     0.098431     0.526650  Biso 1.000000     N
    N   1.0     0.597350     0.098430     0.526650  Biso 1.000000     N
    N   1.0     0.301759     0.111525     0.088314  Biso 1.000000     N
    N   1.0     0.801762     0.111526     0.088314  Biso 1.000000     N
    N   1.0     0.152658     0.526681     0.098460  Biso 1.000000     N
    N   1.0     0.652660     0.526680     0.098461  Biso 1.000000     N
    O   1.0     0.059956     0.633045     0.972416  Biso 1.000000     O
    O   1.0     0.559959     0.633048     0.972420  Biso 1.000000     O
    O   1.0     0.460769     0.617292     0.929074  Biso 1.000000     O
    O   1.0     0.960771     0.617289     0.929071  Biso 1.000000     O
    O   1.0     0.028152     0.632738     0.180664  Biso 1.000000     O
    O   1.0     0.528155     0.632736     0.180666  Biso 1.000000     O
    O   1.0     0.428402     0.620914     0.145123  Biso 1.000000     O
    O   1.0     0.928404     0.620916     0.145122  Biso 1.000000     O
    O   1.0     0.190035     0.972515     0.633177  Biso 1.000000     O
    O   1.0     0.690038     0.972516     0.633178  Biso 1.000000     O
    O   1.0     0.289223     0.929131     0.617367  Biso 1.000000     O
    O   1.0     0.789225     0.929131     0.617368  Biso 1.000000     O
    O   1.0     0.221862     0.180667     0.632746  Biso 1.000000     O
    O   1.0     0.721865     0.180667     0.632745  Biso 1.000000     O
    O   1.0     0.321615     0.145108     0.620895  Biso 1.000000     O
    O   1.0     0.821617     0.145107     0.620895  Biso 1.000000     O
    O   1.0     0.440045     0.366949     0.027599  Biso 1.000000     O
    O   1.0     0.940048     0.366952     0.027603  Biso 1.000000     O
    O   1.0     0.039233     0.382708     0.070946  Biso 1.000000     O
    O   1.0     0.539235     0.382705     0.070943  Biso 1.000000     O
    O   1.0     0.471851     0.367260     0.819354  Biso 1.000000     O
    O   1.0     0.971853     0.367259     0.819355  Biso 1.000000     O
    O   1.0     0.071601     0.379082     0.854896  Biso 1.000000     O
    O   1.0     0.571604     0.379083     0.854896  Biso 1.000000     O
    O   1.0     0.309966     0.027480     0.366838  Biso 1.000000     O
    O   1.0     0.809968     0.027480     0.366838  Biso 1.000000     O
    O   1.0     0.210779     0.070870     0.382652  Biso 1.000000     O
    O   1.0     0.710781     0.070868     0.382651  Biso 1.000000     O
    O   1.0     0.278141     0.819330     0.367271  Biso 1.000000     O
    O   1.0     0.778144     0.819329     0.367272  Biso 1.000000     O
    O   1.0     0.178388     0.854892     0.379118  Biso 1.000000     O
    O   1.0     0.678391     0.854890     0.379120  Biso 1.000000     O
    S   1.0     0.007414     0.042130     0.795368  Biso 1.000000     S
    S   1.0     0.507416     0.042131     0.795369  Biso 1.000000     S
    S   1.0     0.431941     0.038004     0.696296  Biso 1.000000     S
    S   1.0     0.931944     0.038004     0.696296  Biso 1.000000     S
    S   1.0     0.242568     0.795240     0.042150  Biso 1.000000     S
    S   1.0     0.742570     0.795240     0.042150  Biso 1.000000     S
    S   1.0     0.318047     0.696174     0.037963  Biso 1.000000     S
    S   1.0     0.818050     0.696174     0.037963  Biso 1.000000     S
    S   1.0     0.492589     0.957867     0.204650  Biso 1.000000     S
    S   1.0     0.992591     0.957867     0.204650  Biso 1.000000     S
    S   1.0     0.068061     0.961994     0.303722  Biso 1.000000     S
    S   1.0     0.568064     0.961994     0.303722  Biso 1.000000     S
    S   1.0     0.257435     0.204757     0.957868  Biso 1.000000     S
    S   1.0     0.757438     0.204757     0.957868  Biso 1.000000     S
    S   1.0     0.181956     0.303823     0.962054  Biso 1.000000     S
    S   1.0     0.681958     0.303823     0.962053  Biso 1.000000     S
   Zn   1.0     0.435085     0.495158     0.973688  Biso 1.000000    Zn
   Zn   1.0     0.935087     0.495158     0.973688  Biso 1.000000    Zn
   Zn   1.0     0.314915     0.973658     0.495160  Biso 1.000000    Zn
   Zn   1.0     0.814918     0.973658     0.495160  Biso 1.000000    Zn
   Zn   1.0     0.064918     0.504839     0.026331  Biso 1.000000    Zn
   Zn   1.0     0.564920     0.504839     0.026331  Biso 1.000000    Zn
   Zn   1.0     0.185087     0.026339     0.504857  Biso 1.000000    Zn
   Zn   1.0     0.685089     0.026338     0.504857  Biso 1.000000    Zn
