#======================================================================

# CRYSTAL DATA

#----------------------------------------------------------------------

data_VESTA_phase_1


_pd_phase_name                         MOF
_cell_length_a                         13.21700
_cell_length_b                         14.82900
_cell_length_c                         21.94200
_cell_angle_alpha                      89.92500
_cell_angle_beta                       90.03700
_cell_angle_gamma                      90.03200
_symmetry_space_group_name_H-M         "P 1"
_symmetry_Int_Tables_number            1

loop_
_symmetry_equiv_pos_as_xyz
   "x, y, z"

loop_
   _atom_site_label
   _atom_site_occupancy
   _atom_site_fract_x
   _atom_site_fract_y
   _atom_site_fract_z
   _atom_site_adp_type
   _atom_site_B_iso_or_equiv
   _atom_site_type_symbol
    H   1.0     0.094117     0.397080     0.716937  Biso 1.000000     H
    H   1.0     0.589986     0.396458     0.713950  Biso 1.000000     H
    H   1.0     0.454586     0.301365     0.875649  Biso 1.000000     H
    H   1.0     0.953985     0.299765     0.876576  Biso 1.000000     H
    H   1.0     0.087986     0.169422     0.834223  Biso 1.000000     H
    H   1.0     0.590947     0.172171     0.834205  Biso 1.000000     H
    H   1.0     0.179565     0.244260     0.680333  Biso 1.000000     H
    H   1.0     0.679964     0.245795     0.679088  Biso 1.000000     H
    H   1.0     0.179965     0.152674     0.732136  Biso 1.000000     H
    H   1.0     0.680423     0.154146     0.730824  Biso 1.000000     H
    H   1.0     0.312693     0.323044     0.743062  Biso 1.000000     H
    H   1.0     0.812465     0.324978     0.742002  Biso 1.000000     H
    H   1.0     0.307344     0.237301     0.798182  Biso 1.000000     H
    H   1.0     0.806677     0.239639     0.797397  Biso 1.000000     H
    H   1.0     0.405692     0.090394     0.778865  Biso 1.000000     H
    H   1.0     0.902027     0.090593     0.777747  Biso 1.000000     H
    H   1.0     0.390098     0.279962     0.634325  Biso 1.000000     H
    H   1.0     0.893914     0.283057     0.634765  Biso 1.000000     H
    H   1.0     0.030722     0.145373     0.606055  Biso 1.000000     H
    H   1.0     0.528669     0.143793     0.605462  Biso 1.000000     H
    H   1.0     0.034873     0.482592     0.141566  Biso 1.000000     H
    H   1.0     0.536506     0.481512     0.141457  Biso 1.000000     H
    H   1.0     0.470315     0.570597     0.106621  Biso 1.000000     H
    H   1.0     0.968075     0.571150     0.106512  Biso 1.000000     H
    H   1.0     0.421564     0.370236     0.086010  Biso 1.000000     H
    H   1.0     0.921273     0.370431     0.085874  Biso 1.000000     H
    H   1.0     0.356037     0.461861     0.053691  Biso 1.000000     H
    H   1.0     0.855446     0.461594     0.053198  Biso 1.000000     H
    H   1.0     0.017970     0.509367     0.000290  Biso 1.000000     H
    H   1.0     0.518402     0.508760     0.000220  Biso 1.000000     H
    H   1.0     0.471857     0.402513     0.978364  Biso 1.000000     H
    H   1.0     0.972487     0.402760     0.978415  Biso 1.000000     H
    H   1.0     0.149531     0.437994     0.066335  Biso 1.000000     H
    H   1.0     0.649754     0.436378     0.065916  Biso 1.000000     H
    H   1.0     0.093238     0.331224     0.055724  Biso 1.000000     H
    H   1.0     0.592771     0.329919     0.055104  Biso 1.000000     H
    H   1.0     0.139058     0.333365     0.945357  Biso 1.000000     H
    H   1.0     0.638241     0.332374     0.944760  Biso 1.000000     H
    H   1.0     0.245026     0.341725     0.993351  Biso 1.000000     H
    H   1.0     0.744605     0.340818     0.992432  Biso 1.000000     H
    H   1.0     0.145178     0.498880     0.924191  Biso 1.000000     H
    H   1.0     0.643785     0.497517     0.923333  Biso 1.000000     H
    H   1.0     0.246211     0.512370     0.975422  Biso 1.000000     H
    H   1.0     0.743918     0.511953     0.975057  Biso 1.000000     H
    H   1.0     0.160087     0.603916     0.214407  Biso 1.000000     H
    H   1.0     0.659141     0.604899     0.214458  Biso 1.000000     H
    H   1.0     0.295569     0.698774     0.376096  Biso 1.000000     H
    H   1.0     0.794514     0.698441     0.376524  Biso 1.000000     H
    H   1.0     0.159013     0.827906     0.334529  Biso 1.000000     H
    H   1.0     0.659055     0.828481     0.334988  Biso 1.000000     H
    H   1.0     0.070351     0.754729     0.179308  Biso 1.000000     H
    H   1.0     0.571186     0.757501     0.179449  Biso 1.000000     H
    H   1.0     0.070192     0.846387     0.230942  Biso 1.000000     H
    H   1.0     0.568731     0.847489     0.232313  Biso 1.000000     H
    H   1.0     0.438525     0.675168     0.240450  Biso 1.000000     H
    H   1.0     0.937145     0.676219     0.242127  Biso 1.000000     H
    H   1.0     0.442102     0.759045     0.296789  Biso 1.000000     H
    H   1.0     0.943124     0.761661     0.297278  Biso 1.000000     H
    H   1.0     0.345448     0.908044     0.277583  Biso 1.000000     H
    H   1.0     0.844576     0.908658     0.278341  Biso 1.000000     H
    H   1.0     0.358824     0.718860     0.133063  Biso 1.000000     H
    H   1.0     0.859802     0.720422     0.133341  Biso 1.000000     H
    H   1.0     0.221472     0.856258     0.104224  Biso 1.000000     H
    H   1.0     0.721254     0.856926     0.104805  Biso 1.000000     H
    H   1.0     0.210568     0.519341     0.641922  Biso 1.000000     H
    H   1.0     0.716381     0.517812     0.642668  Biso 1.000000     H
    H   1.0     0.276470     0.429977     0.607464  Biso 1.000000     H
    H   1.0     0.782393     0.428493     0.608185  Biso 1.000000     H
    H   1.0     0.326141     0.630149     0.586439  Biso 1.000000     H
    H   1.0     0.830545     0.628708     0.586124  Biso 1.000000     H
    H   1.0     0.391520     0.538277     0.554538  Biso 1.000000     H
    H   1.0     0.895524     0.536833     0.553993  Biso 1.000000     H
    H   1.0     0.229286     0.491635     0.500827  Biso 1.000000     H
    H   1.0     0.732583     0.489471     0.501450  Biso 1.000000     H
    H   1.0     0.276214     0.597736     0.478760  Biso 1.000000     H
    H   1.0     0.778374     0.595779     0.479030  Biso 1.000000     H
    H   1.0     0.097971     0.564599     0.566120  Biso 1.000000     H
    H   1.0     0.601523     0.561546     0.567203  Biso 1.000000     H
    H   1.0     0.155058     0.670919     0.554763  Biso 1.000000     H
    H   1.0     0.658275     0.668109     0.556282  Biso 1.000000     H
    H   1.0     0.109822     0.667624     0.444397  Biso 1.000000     H
    H   1.0     0.612149     0.665885     0.445955  Biso 1.000000     H
    H   1.0     0.003334     0.659552     0.491925  Biso 1.000000     H
    H   1.0     0.506300     0.658085     0.493985  Biso 1.000000     H
    H   1.0     0.104426     0.502079     0.424112  Biso 1.000000     H
    H   1.0     0.605034     0.500102     0.425426  Biso 1.000000     H
    H   1.0     0.003234     0.488546     0.475161  Biso 1.000000     H
    H   1.0     0.503583     0.487616     0.476410  Biso 1.000000     H
    H   1.0     0.411349     0.895355     0.785566  Biso 1.000000     H
    H   1.0     0.908111     0.895274     0.784907  Biso 1.000000     H
    H   1.0     0.045177     0.801060     0.623682  Biso 1.000000     H
    H   1.0     0.544590     0.801690     0.623039  Biso 1.000000     H
    H   1.0     0.408026     0.672397     0.664523  Biso 1.000000     H
    H   1.0     0.910224     0.670605     0.665346  Biso 1.000000     H
    H   1.0     0.321738     0.743707     0.820346  Biso 1.000000     H
    H   1.0     0.821365     0.741383     0.820278  Biso 1.000000     H
    H   1.0     0.319002     0.653429     0.767730  Biso 1.000000     H
    H   1.0     0.818299     0.651998     0.766963  Biso 1.000000     H
    H   1.0     0.188662     0.825537     0.759426  Biso 1.000000     H
    H   1.0     0.688682     0.824709     0.759984  Biso 1.000000     H
    H   1.0     0.192259     0.741727     0.703052  Biso 1.000000     H
    H   1.0     0.692007     0.741927     0.702927  Biso 1.000000     H
    H   1.0     0.096680     0.591973     0.722500  Biso 1.000000     H
    H   1.0     0.593617     0.593567     0.720379  Biso 1.000000     H
    H   1.0     0.108360     0.782159     0.866471  Biso 1.000000     H
    H   1.0     0.610101     0.778347     0.867350  Biso 1.000000     H
    H   1.0     0.471250     0.641289     0.894564  Biso 1.000000     H
    H   1.0     0.971328     0.644470     0.895291  Biso 1.000000     H
    H   1.0     0.463807     0.981008     0.357666  Biso 1.000000     H
    H   1.0     0.965611     0.980547     0.357403  Biso 1.000000     H
    H   1.0     0.031846     0.070160     0.391548  Biso 1.000000     H
    H   1.0     0.528868     0.071595     0.391307  Biso 1.000000     H
    H   1.0     0.079731     0.870049     0.414007  Biso 1.000000     H
    H   1.0     0.579566     0.872260     0.414782  Biso 1.000000     H
    H   1.0     0.145808     0.961962     0.445464  Biso 1.000000     H
    H   1.0     0.644049     0.965217     0.445997  Biso 1.000000     H
    H   1.0     0.481565     0.000000     0.498822  Biso 1.000000     H
    H   1.0     0.984339     0.000000     0.498867  Biso 1.000000     H
    H   1.0     0.029175     0.903519     0.521095  Biso 1.000000     H
    H   1.0     0.527865     0.906209     0.521669  Biso 1.000000     H
    H   1.0     0.350103     0.939313     0.433862  Biso 1.000000     H
    H   1.0     0.851485     0.939499     0.433763  Biso 1.000000     H
    H   1.0     0.407295     0.832992     0.444673  Biso 1.000000     H
    H   1.0     0.907256     0.832472     0.444025  Biso 1.000000     H
    H   1.0     0.362337     0.835081     0.555091  Biso 1.000000     H
    H   1.0     0.862787     0.834053     0.554544  Biso 1.000000     H
    H   1.0     0.255947     0.842611     0.507430  Biso 1.000000     H
    H   1.0     0.756353     0.843080     0.507016  Biso 1.000000     H
    H   1.0     0.354792     0.000000     0.576260  Biso 1.000000     H
    H   1.0     0.857374     0.999247     0.576403  Biso 1.000000     H
    H   1.0     0.253931     0.000000     0.524888  Biso 1.000000     H
    H   1.0     0.756520     0.000000     0.525176  Biso 1.000000     H
    H   1.0     0.341570     0.104124     0.283725  Biso 1.000000     H
    H   1.0     0.840439     0.103564     0.284485  Biso 1.000000     H
    H   1.0     0.202967     0.199350     0.122955  Biso 1.000000     H
    H   1.0     0.704363     0.199609     0.123177  Biso 1.000000     H
    H   1.0     0.338058     0.329605     0.164448  Biso 1.000000     H
    H   1.0     0.840210     0.328930     0.165130  Biso 1.000000     H
    H   1.0     0.428249     0.257444     0.319165  Biso 1.000000     H
    H   1.0     0.929186     0.254916     0.320095  Biso 1.000000     H
    H   1.0     0.430464     0.347573     0.266241  Biso 1.000000     H
    H   1.0     0.929820     0.346588     0.268372  Biso 1.000000     H
    H   1.0     0.062504     0.176266     0.257580  Biso 1.000000     H
    H   1.0     0.560901     0.175557     0.257955  Biso 1.000000     H
    H   1.0     0.056851     0.261664     0.202288  Biso 1.000000     H
    H   1.0     0.557161     0.259810     0.201757  Biso 1.000000     H
    H   1.0     0.154865     0.409058     0.221246  Biso 1.000000     H
    H   1.0     0.654394     0.408309     0.220774  Biso 1.000000     H
    H   1.0     0.140802     0.219837     0.366032  Biso 1.000000     H
    H   1.0     0.640021     0.219231     0.365649  Biso 1.000000     H
    H   1.0     0.279577     0.356294     0.394355  Biso 1.000000     H
    H   1.0     0.777945     0.356270     0.394276  Biso 1.000000     H
    H   1.0     0.283658     0.016863     0.858732  Biso 1.000000     H
    H   1.0     0.785659     0.017400     0.859021  Biso 1.000000     H
    H   1.0     0.216066     0.928905     0.894003  Biso 1.000000     H
    H   1.0     0.717227     0.930435     0.894876  Biso 1.000000     H
    H   1.0     0.170084     0.129929     0.913623  Biso 1.000000     H
    H   1.0     0.672696     0.132113     0.912592  Biso 1.000000     H
    H   1.0     0.104041     0.039145     0.946668  Biso 1.000000     H
    H   1.0     0.605073     0.042430     0.945890  Biso 1.000000     H
    H   1.0     0.266641    -0.008233     0.999812  Biso 1.000000     H
    H   1.0     0.766569    -0.005395     0.000000  Biso 1.000000     H
    H   1.0     0.221085     0.098385     0.021367  Biso 1.000000     H
    H   1.0     0.721302     0.101760     0.020937  Biso 1.000000     H
    H   1.0     0.397850     0.063226     0.933372  Biso 1.000000     H
    H   1.0     0.898883     0.064972     0.933832  Biso 1.000000     H
    H   1.0     0.341736     0.169974     0.944240  Biso 1.000000     H
    H   1.0     0.843598     0.172081     0.944577  Biso 1.000000     H
    H   1.0     0.388142     0.167294     0.054567  Biso 1.000000     H
    H   1.0     0.889228     0.168902     0.055104  Biso 1.000000     H
    H   1.0     0.493900     0.159020     0.006486  Biso 1.000000     H
    H   1.0     0.995209     0.159988     0.007203  Biso 1.000000     H
    H   1.0     0.393673     0.001549     0.075165  Biso 1.000000     H
    H   1.0     0.893050     0.003365     0.075677  Biso 1.000000     H
    H   1.0     0.494653    -0.011664     0.023954  Biso 1.000000     H
    H   1.0     0.993887    -0.010878     0.024416  Biso 1.000000     H
    C   1.0     0.075489     0.354245     0.755366  Biso 1.000000     C
    C   1.0     0.573030     0.354422     0.753058  Biso 1.000000     C
    C   1.0     0.505681     0.302255     0.837109  Biso 1.000000     C
    C   1.0     0.000000     0.300908     0.838360  Biso 1.000000     C
    C   1.0     0.071461     0.236594     0.817836  Biso 1.000000     C
    C   1.0     0.572532     0.238516     0.817032  Biso 1.000000     C
    C   1.0     0.191431     0.225723     0.728249  Biso 1.000000     C
    C   1.0     0.691535     0.227252     0.727028  Biso 1.000000     C
    C   1.0     0.298335     0.250790     0.749386  Biso 1.000000     C
    C   1.0     0.798143     0.252743     0.748519  Biso 1.000000     C
    C   1.0     0.419275     0.121855     0.735050  Biso 1.000000     C
    C   1.0     0.917513     0.122670     0.734372  Biso 1.000000     C
    C   1.0     0.412850     0.219732     0.658699  Biso 1.000000     C
    C   1.0     0.914870     0.222024     0.658806  Biso 1.000000     C
    C   1.0     0.480998     0.153042     0.645139  Biso 1.000000     C
    C   1.0     0.982154     0.154611     0.645327  Biso 1.000000     C
    C   1.0     0.385823     0.502669     0.175659  Biso 1.000000     C
    C   1.0     0.883907     0.502759     0.175506  Biso 1.000000     C
    C   1.0     0.462101     0.500498     0.123198  Biso 1.000000     C
    C   1.0     0.960429     0.501019     0.123122  Biso 1.000000     C
    C   1.0     0.430957     0.440151     0.069741  Biso 1.000000     C
    C   1.0     0.930344     0.440376     0.069591  Biso 1.000000     C
    C   1.0     0.506509     0.439254     0.016762  Biso 1.000000     C
    C   1.0     0.000000     0.439831     0.016878  Biso 1.000000     C
    C   1.0     0.108436     0.396261     0.032863  Biso 1.000000     C
    C   1.0     0.608227     0.395033     0.032417  Biso 1.000000     C
    C   1.0     0.177220     0.378474     0.977893  Biso 1.000000     C
    C   1.0     0.676561     0.377451     0.977249  Biso 1.000000     C
    C   1.0     0.210883     0.463659     0.944093  Biso 1.000000     C
    C   1.0     0.709606     0.462891     0.943563  Biso 1.000000     C
    C   1.0     0.283586     0.446263     0.891581  Biso 1.000000     C
    C   1.0     0.783362     0.446211     0.891543  Biso 1.000000     C
    C   1.0     0.177018     0.645872     0.253503  Biso 1.000000     C
    C   1.0     0.676210     0.646654     0.253634  Biso 1.000000     C
    C   1.0     0.244461     0.697917     0.337520  Biso 1.000000     C
    C   1.0     0.743568     0.697975     0.337878  Biso 1.000000     C
    C   1.0     0.177502     0.761641     0.317384  Biso 1.000000     C
    C   1.0     0.677167     0.762164     0.317757  Biso 1.000000     C
    C   1.0     0.058689     0.773334     0.227186  Biso 1.000000     C
    C   1.0     0.558498     0.774424     0.227521  Biso 1.000000     C
    C   1.0     0.451781     0.747354     0.247853  Biso 1.000000     C
    C   1.0     0.951809     0.748407     0.248464  Biso 1.000000     C
    C   1.0     0.331347     0.876789     0.233805  Biso 1.000000     C
    C   1.0     0.830812     0.877587     0.234470  Biso 1.000000     C
    C   1.0     0.336686     0.779165     0.157432  Biso 1.000000     C
    C   1.0     0.837104     0.780413     0.157874  Biso 1.000000     C
    C   1.0     0.269158     0.846432     0.143883  Biso 1.000000     C
    C   1.0     0.768957     0.847249     0.144474  Biso 1.000000     C
    C   1.0     0.360994     0.497582     0.676525  Biso 1.000000     C
    C   1.0     0.867242     0.497155     0.676715  Biso 1.000000     C
    C   1.0     0.284975     0.500061     0.623898  Biso 1.000000     C
    C   1.0     0.790636     0.498769     0.624297  Biso 1.000000     C
    C   1.0     0.316591     0.560218     0.570351  Biso 1.000000     C
    C   1.0     0.820871     0.558646     0.570332  Biso 1.000000     C
    C   1.0     0.241275     0.561168     0.517181  Biso 1.000000     C
    C   1.0     0.744423     0.559071     0.517711  Biso 1.000000     C
    C   1.0     0.139579     0.605615     0.532436  Biso 1.000000     C
    C   1.0     0.642721     0.603073     0.533615  Biso 1.000000     C
    C   1.0     0.071402     0.622782     0.477038  Biso 1.000000     C
    C   1.0     0.573849     0.620991     0.478616  Biso 1.000000     C
    C   1.0     0.038414     0.537157     0.443642  Biso 1.000000     C
    C   1.0     0.539580     0.535933     0.445014  Biso 1.000000     C
    C   1.0     0.467319     0.553777     0.392252  Biso 1.000000     C
    C   1.0     0.965867     0.553772     0.390910  Biso 1.000000     C
    C   1.0     0.427562     0.853707     0.746222  Biso 1.000000     C
    C   1.0     0.925655     0.853279     0.745947  Biso 1.000000     C
    C   1.0    -0.006114     0.801558     0.662125  Biso 1.000000     C
    C   1.0     0.493870     0.802301     0.661760  Biso 1.000000     C
    C   1.0     0.426907     0.738514     0.681851  Biso 1.000000     C
    C   1.0     0.927742     0.737204     0.682319  Biso 1.000000     C
    C   1.0     0.308848     0.726518     0.772327  Biso 1.000000     C
    C   1.0     0.808400     0.725040     0.772130  Biso 1.000000     C
    C   1.0     0.202042     0.753386     0.751993  Biso 1.000000     C
    C   1.0     0.701739     0.752644     0.751972  Biso 1.000000     C
    C   1.0     0.082117     0.623464     0.766124  Biso 1.000000     C
    C   1.0     0.580086     0.623651     0.764575  Biso 1.000000     C
    C   1.0     0.086611     0.721607     0.842216  Biso 1.000000     C
    C   1.0     0.587011     0.719007     0.842192  Biso 1.000000     C
    C   1.0     0.019219     0.654181     0.855748  Biso 1.000000     C
    C   1.0     0.518793     0.651929     0.854970  Biso 1.000000     C
    C   1.0     0.116316     0.000000     0.323092  Biso 1.000000     C
    C   1.0     0.614230     0.000000     0.323254  Biso 1.000000     C
    C   1.0     0.039968     0.999825     0.375563  Biso 1.000000     C
    C   1.0     0.537961     0.000000     0.375740  Biso 1.000000     C
    C   1.0     0.070761     0.940283     0.429596  Biso 1.000000     C
    C   1.0     0.569411     0.942512     0.430071  Biso 1.000000     C
    C   1.0    -0.004873     0.940539     0.482568  Biso 1.000000     C
    C   1.0     0.493489     0.942404     0.482891  Biso 1.000000     C
    C   1.0     0.391778     0.897997     0.467357  Biso 1.000000     C
    C   1.0     0.892742     0.897427     0.467016  Biso 1.000000     C
    C   1.0     0.323589     0.879879     0.522558  Biso 1.000000     C
    C   1.0     0.824512     0.879520     0.522230  Biso 1.000000     C
    C   1.0     0.289457     0.964792     0.556277  Biso 1.000000     C
    C   1.0     0.791529     0.964472     0.556327  Biso 1.000000     C
    C   1.0     0.216378     0.946684     0.608523  Biso 1.000000     C
    C   1.0     0.718413     0.946525     0.608579  Biso 1.000000     C
    C   1.0     0.323573     0.146379     0.244884  Biso 1.000000     C
    C   1.0     0.823280     0.145872     0.245534  Biso 1.000000     C
    C   1.0     0.254474     0.198585     0.161331  Biso 1.000000     C
    C   1.0     0.755480     0.198522     0.161741  Biso 1.000000     C
    C   1.0     0.320803     0.262865     0.181397  Biso 1.000000     C
    C   1.0     0.822158     0.262348     0.182046  Biso 1.000000     C
    C   1.0     0.440785     0.274519     0.271070  Biso 1.000000     C
    C   1.0     0.941118     0.273515     0.272203  Biso 1.000000     C
    C   1.0     0.048016     0.248467     0.251122  Biso 1.000000     C
    C   1.0     0.547511     0.247764     0.250672  Biso 1.000000     C
    C   1.0     0.168991     0.377715     0.265038  Biso 1.000000     C
    C   1.0     0.668283     0.377049     0.264621  Biso 1.000000     C
    C   1.0     0.163289     0.280028     0.341517  Biso 1.000000     C
    C   1.0     0.662447     0.279468     0.341167  Biso 1.000000     C
    C   1.0     0.231565     0.346826     0.354808  Biso 1.000000     C
    C   1.0     0.730257     0.346567     0.354616  Biso 1.000000     C
    C   1.0     0.132664    -0.002883     0.824545  Biso 1.000000     C
    C   1.0     0.634700    -0.002431     0.824594  Biso 1.000000     C
    C   1.0     0.208998    -0.001094     0.877063  Biso 1.000000     C
    C   1.0     0.710740     0.000107     0.877255  Biso 1.000000     C
    C   1.0     0.178983     0.060159     0.930253  Biso 1.000000     C
    C   1.0     0.680519     0.062540     0.929795  Biso 1.000000     C
    C   1.0     0.255099     0.061172     0.983011  Biso 1.000000     C
    C   1.0     0.755729     0.063860     0.983021  Biso 1.000000     C
    C   1.0     0.356972     0.104843     0.966953  Biso 1.000000     C
    C   1.0     0.858113     0.106842     0.967314  Biso 1.000000     C
    C   1.0     0.426027     0.122307     0.021893  Biso 1.000000     C
    C   1.0     0.926905     0.123751     0.022451  Biso 1.000000     C
    C   1.0     0.459462     0.036847     0.055430  Biso 1.000000     C
    C   1.0     0.959337     0.037913     0.055930  Biso 1.000000     C
    C   1.0     0.032185     0.054065     0.108554  Biso 1.000000     C
    C   1.0     0.532219     0.053770     0.108005  Biso 1.000000     C
    N   1.0     0.008462     0.373926     0.798849  Biso 1.000000     N
    N   1.0     0.506263     0.374169     0.796661  Biso 1.000000     N
    N   1.0     0.114743     0.270803     0.765101  Biso 1.000000     N
    N   1.0     0.614286     0.271978     0.763644  Biso 1.000000     N
    N   1.0     0.374437     0.199309     0.715927  Biso 1.000000     N
    N   1.0     0.874591     0.201103     0.715484  Biso 1.000000     N
    N   1.0     0.484716     0.092531     0.693332  Biso 1.000000     N
    N   1.0     0.983500     0.093172     0.693034  Biso 1.000000     N
    N   1.0     0.243889     0.626062     0.297146  Biso 1.000000     N
    N   1.0     0.742662     0.626297     0.297368  Biso 1.000000     N
    N   1.0     0.135680     0.728269     0.264014  Biso 1.000000     N
    N   1.0     0.635471     0.729253     0.264219  Biso 1.000000     N
    N   1.0     0.375373     0.799047     0.214677  Biso 1.000000     N
    N   1.0     0.875629     0.800286     0.215163  Biso 1.000000     N
    N   1.0     0.266168     0.906789     0.192072  Biso 1.000000     N
    N   1.0     0.765322     0.907326     0.192813  Biso 1.000000     N
    N   1.0     0.493972     0.873785     0.702428  Biso 1.000000     N
    N   1.0     0.992322     0.873591     0.702342  Biso 1.000000     N
    N   1.0     0.385830     0.771487     0.735501  Biso 1.000000     N
    N   1.0     0.885440     0.770373     0.735563  Biso 1.000000     N
    N   1.0     0.125764     0.701490     0.785159  Biso 1.000000     N
    N   1.0     0.625125     0.700474     0.784639  Biso 1.000000     N
    N   1.0     0.016733     0.593495     0.807728  Biso 1.000000     N
    N   1.0     0.514784     0.593001     0.805992  Biso 1.000000     N
    N   1.0     0.256496     0.126304     0.201455  Biso 1.000000     N
    N   1.0     0.756445     0.126223     0.201869  Biso 1.000000     N
    N   1.0     0.363652     0.229365     0.234488  Biso 1.000000     N
    N   1.0     0.864192     0.228596     0.235295  Biso 1.000000     N
    N   1.0     0.124281     0.300263     0.284377  Biso 1.000000     N
    N   1.0     0.623875     0.299434     0.283879  Biso 1.000000     N
    N   1.0     0.234849     0.407221     0.306531  Biso 1.000000     N
    N   1.0     0.733585     0.406896     0.306305  Biso 1.000000     N
    O   1.0     0.426711     0.507900     0.229741  Biso 1.000000     O
    O   1.0     0.924686     0.507855     0.229601  Biso 1.000000     O
    O   1.0     0.292793     0.500125     0.165590  Biso 1.000000     O
    O   1.0     0.790884     0.500102     0.165396  Biso 1.000000     O
    O   1.0     0.337661     0.515601     0.874518  Biso 1.000000     O
    O   1.0     0.836331     0.516258     0.874609  Biso 1.000000     O
    O   1.0     0.288960     0.370671     0.866719  Biso 1.000000     O
    O   1.0     0.790852     0.370558     0.866952  Biso 1.000000     O
    O   1.0     0.320133     0.492191     0.730578  Biso 1.000000     O
    O   1.0     0.826466     0.492095     0.730788  Biso 1.000000     O
    O   1.0     0.454116     0.500025     0.666744  Biso 1.000000     O
    O   1.0     0.960248     0.499949     0.666675  Biso 1.000000     O
    O   1.0     0.413805     0.484386     0.374607  Biso 1.000000     O
    O   1.0     0.912121     0.484083     0.374167  Biso 1.000000     O
    O   1.0     0.461789     0.629705     0.367797  Biso 1.000000     O
    O   1.0     0.960117     0.629083     0.365552  Biso 1.000000     O
    O   1.0     0.075364     0.000000     0.268967  Biso 1.000000     O
    O   1.0     0.573255     0.000000     0.269190  Biso 1.000000     O
    O   1.0     0.209365     0.000000     0.333207  Biso 1.000000     O
    O   1.0     0.707273     0.000000     0.333229  Biso 1.000000     O
    O   1.0     0.164040     0.016358     0.626650  Biso 1.000000     O
    O   1.0     0.666159     0.016285     0.626681  Biso 1.000000     O
    O   1.0     0.208942     0.870241     0.632061  Biso 1.000000     O
    O   1.0     0.710905     0.870114     0.632152  Biso 1.000000     O
    O   1.0     0.173562    -0.007974     0.770506  Biso 1.000000     O
    O   1.0     0.675761    -0.007837     0.770609  Biso 1.000000     O
    O   1.0     0.039629    -0.000206     0.834520  Biso 1.000000     O
    O   1.0     0.541622    -0.000104     0.834473  Biso 1.000000     O
    O   1.0     0.088387     0.985074     0.123639  Biso 1.000000     O
    O   1.0     0.586126     0.984217     0.124860  Biso 1.000000     O
    O   1.0     0.035829     0.128314     0.135352  Biso 1.000000     O
    O   1.0     0.537928     0.129136     0.133161  Biso 1.000000     O
   Zn   1.0     0.417127     0.484602     0.800458  Biso 1.000000    Zn
   Zn   1.0     0.919743     0.484598     0.802514  Biso 1.000000    Zn
   Zn   1.0     0.333174     0.515496     0.301250  Biso 1.000000    Zn
   Zn   1.0     0.831144     0.515448     0.301046  Biso 1.000000    Zn
   Zn   1.0     0.080537     0.984580     0.698698  Biso 1.000000    Zn
   Zn   1.0     0.582796     0.984529     0.698759  Biso 1.000000    Zn
   Zn   1.0     0.168543     0.015165     0.197479  Biso 1.000000    Zn
   Zn   1.0     0.667120     0.015578     0.197841  Biso 1.000000    Zn
