#======================================================================

# CRYSTAL DATA

#----------------------------------------------------------------------

data_VESTA_phase_1


_pd_phase_name                         MOF
_cell_length_a                         19.00900
_cell_length_b                         13.05600
_cell_length_c                         12.88200
_cell_angle_alpha                      111.49000
_cell_angle_beta                       105.09700
_cell_angle_gamma                      98.84400
_symmetry_space_group_name_H-M         "P 1"
_symmetry_Int_Tables_number            1

loop_
_symmetry_equiv_pos_as_xyz
   "x, y, z"

loop_
   _atom_site_label
   _atom_site_occupancy
   _atom_site_fract_x
   _atom_site_fract_y
   _atom_site_fract_z
   _atom_site_adp_type
   _atom_site_B_iso_or_equiv
   _atom_site_type_symbol
    H   1.0     0.316806     0.350866     0.453264  Biso 1.000000     H
    H   1.0     0.816815     0.350866     0.453265  Biso 1.000000     H
    H   1.0     0.216877     0.150386     0.264598  Biso 1.000000     H
    H   1.0     0.716885     0.150387     0.264598  Biso 1.000000     H
    H   1.0     0.442413     0.123323     0.329854  Biso 1.000000     H
    H   1.0     0.942421     0.123321     0.329856  Biso 1.000000     H
    H   1.0     0.193948     0.944362     0.207641  Biso 1.000000     H
    H   1.0     0.693956     0.944363     0.207641  Biso 1.000000     H
    H   1.0     0.144401     0.756314     0.035018  Biso 1.000000     H
    H   1.0     0.644408     0.756316     0.035017  Biso 1.000000     H
    H   1.0     0.339704     0.830543     0.935495  Biso 1.000000     H
    H   1.0     0.839711     0.830543     0.935495  Biso 1.000000     H
    H   1.0     0.388622     0.019307     0.107062  Biso 1.000000     H
    H   1.0     0.888630     0.019307     0.107063  Biso 1.000000     H
    H   1.0     0.087608     0.649505     0.830471  Biso 1.000000     H
    H   1.0     0.587615     0.649507     0.830470  Biso 1.000000     H
    H   1.0     0.311765     0.631114     0.847672  Biso 1.000000     H
    H   1.0     0.811772     0.631115     0.847673  Biso 1.000000     H
    H   1.0     0.206673     0.440610     0.654719  Biso 1.000000     H
    H   1.0     0.706680     0.440611     0.654720  Biso 1.000000     H
    H   1.0     0.025194     0.055808     0.620640  Biso 1.000000     H
    H   1.0     0.525200     0.055807     0.620637  Biso 1.000000     H
    H   1.0     0.116378     0.147811     0.720003  Biso 1.000000     H
    H   1.0     0.616384     0.147811     0.720002  Biso 1.000000     H
    H   1.0     0.208440     0.247347     0.690048  Biso 1.000000     H
    H   1.0     0.708446     0.247348     0.690048  Biso 1.000000     H
    H   1.0     0.103545     0.851186     0.405501  Biso 1.000000     H
    H   1.0     0.603553     0.851188     0.405498  Biso 1.000000     H
    H   1.0     0.344022     0.293640     0.709118  Biso 1.000000     H
    H   1.0     0.844029     0.293641     0.709120  Biso 1.000000     H
    H   1.0     0.352337     0.665820     0.640528  Biso 1.000000     H
    H   1.0     0.852344     0.665819     0.640532  Biso 1.000000     H
    H   1.0     0.439142     0.738069     0.640715  Biso 1.000000     H
    H   1.0     0.939148     0.738067     0.640717  Biso 1.000000     H
    H   1.0     0.412111     0.887288     0.680589  Biso 1.000000     H
    H   1.0     0.912118     0.887286     0.680592  Biso 1.000000     H
    H   1.0     0.448414     0.098369     0.770886  Biso 1.000000     H
    H   1.0     0.948422     0.098368     0.770888  Biso 1.000000     H
    H   1.0     0.010309     0.211211     0.988985  Biso 1.000000     H
    H   1.0     0.510317     0.211211     0.988983  Biso 1.000000     H
    H   1.0     0.183192     0.649100     0.546756  Biso 1.000000     H
    H   1.0     0.683203     0.649104     0.546756  Biso 1.000000     H
    H   1.0     0.283124     0.849577     0.735423  Biso 1.000000     H
    H   1.0     0.783133     0.849582     0.735424  Biso 1.000000     H
    H   1.0     0.057590     0.876650     0.670169  Biso 1.000000     H
    H   1.0     0.557598     0.876651     0.670167  Biso 1.000000     H
    H   1.0     0.306054     0.055605     0.792378  Biso 1.000000     H
    H   1.0     0.806062     0.055610     0.792379  Biso 1.000000     H
    H   1.0     0.355603     0.243654     0.965000  Biso 1.000000     H
    H   1.0     0.855609     0.243658     0.965003  Biso 1.000000     H
    H   1.0     0.160302     0.169426     0.064528  Biso 1.000000     H
    H   1.0     0.660308     0.169425     0.064527  Biso 1.000000     H
    H   1.0     0.111382     0.980662     0.892962  Biso 1.000000     H
    H   1.0     0.611389     0.980661     0.892960  Biso 1.000000     H
    H   1.0     0.412396     0.350466     0.169548  Biso 1.000000     H
    H   1.0     0.912401     0.350470     0.169550  Biso 1.000000     H
    H   1.0     0.188239     0.368852     0.152348  Biso 1.000000     H
    H   1.0     0.688243     0.368851     0.152349  Biso 1.000000     H
    H   1.0     0.293330     0.559359     0.345299  Biso 1.000000     H
    H   1.0     0.793333     0.559358     0.345300  Biso 1.000000     H
    H   1.0     0.474808     0.944164     0.379382  Biso 1.000000     H
    H   1.0     0.974818     0.944167     0.379389  Biso 1.000000     H
    H   1.0     0.383623     0.852162     0.280021  Biso 1.000000     H
    H   1.0     0.883633     0.852165     0.280025  Biso 1.000000     H
    H   1.0     0.291562     0.752625     0.309974  Biso 1.000000     H
    H   1.0     0.791572     0.752628     0.309977  Biso 1.000000     H
    H   1.0     0.396457     0.148786     0.594522  Biso 1.000000     H
    H   1.0     0.896465     0.148789     0.594528  Biso 1.000000     H
    H   1.0     0.155980     0.706333     0.290905  Biso 1.000000     H
    H   1.0     0.655989     0.706335     0.290905  Biso 1.000000     H
    H   1.0     0.147663     0.334156     0.359494  Biso 1.000000     H
    H   1.0     0.647672     0.334151     0.359492  Biso 1.000000     H
    H   1.0     0.060857     0.261905     0.359304  Biso 1.000000     H
    H   1.0     0.560865     0.261905     0.359302  Biso 1.000000     H
    H   1.0     0.087893     0.112690     0.319432  Biso 1.000000     H
    H   1.0     0.587900     0.112689     0.319429  Biso 1.000000     H
    H   1.0     0.051591     0.901609     0.229136  Biso 1.000000     H
    H   1.0     0.551598     0.901608     0.229132  Biso 1.000000     H
    H   1.0     0.489694     0.788766     0.011035  Biso 1.000000     H
    H   1.0     0.989703     0.788766     0.011039  Biso 1.000000     H
    C   1.0     0.327732     0.273516     0.399273  Biso 1.000000     C
    C   1.0     0.827740     0.273516     0.399273  Biso 1.000000     C
    C   1.0     0.277901     0.175920     0.306429  Biso 1.000000     C
    C   1.0     0.777909     0.175921     0.306430  Biso 1.000000     C
    C   1.0     0.395732     0.160365     0.337393  Biso 1.000000     C
    C   1.0     0.895740     0.160364     0.337395  Biso 1.000000     C
    C   1.0     0.294057    -0.005424     0.167970  Biso 1.000000     C
    C   1.0     0.794065    -0.005424     0.167970  Biso 1.000000     C
    C   1.0     0.225151     0.920578     0.146757  Biso 1.000000     C
    C   1.0     0.725158     0.920579     0.146756  Biso 1.000000     C
    C   1.0     0.197290     0.814246     0.049225  Biso 1.000000     C
    C   1.0     0.697298     0.814247     0.049224  Biso 1.000000     C
    C   1.0     0.238332     0.781349     0.972633  Biso 1.000000     C
    C   1.0     0.738339     0.781350     0.972632  Biso 1.000000     C
    C   1.0     0.307734     0.854907    -0.005007  Biso 1.000000     C
    C   1.0     0.807741     0.854907    -0.005007  Biso 1.000000     C
    C   1.0     0.335510     0.961497     0.092298  Biso 1.000000     C
    C   1.0     0.835518     0.961497     0.092298  Biso 1.000000     C
    C   1.0     0.133684     0.618154     0.808038  Biso 1.000000     C
    C   1.0     0.633691     0.618154     0.808036  Biso 1.000000     C
    C   1.0     0.250342     0.607142     0.814669  Biso 1.000000     C
    C   1.0     0.750350     0.607143     0.814669  Biso 1.000000     C
    C   1.0     0.197788     0.513494     0.719821  Biso 1.000000     C
    C   1.0     0.697795     0.513494     0.719821  Biso 1.000000     C
    C   1.0     0.055809     0.208543     0.598197  Biso 1.000000     C
    C   1.0     0.555816     0.208541     0.598193  Biso 1.000000     C
    C   1.0     0.077350     0.111468     0.627423  Biso 1.000000     C
    C   1.0     0.577356     0.111468     0.627422  Biso 1.000000     C
    C   1.0     0.182622     0.072439     0.562889  Biso 1.000000     C
    C   1.0     0.682629     0.072441     0.562885  Biso 1.000000     C
    C   1.0     0.230097     0.181213     0.638867  Biso 1.000000     C
    C   1.0     0.730104     0.181213     0.638872  Biso 1.000000     C
    C   1.0     0.210597     0.985594     0.493541  Biso 1.000000     C
    C   1.0     0.710606     0.985593     0.493547  Biso 1.000000     C
    C   1.0     0.163020     0.873657     0.414456  Biso 1.000000     C
    C   1.0     0.663027     0.873660     0.414450  Biso 1.000000     C
    C   1.0     0.307313     0.207335     0.649588  Biso 1.000000     C
    C   1.0     0.807319     0.207338     0.649586  Biso 1.000000     C
    C   1.0     0.441553     0.583217     0.662096  Biso 1.000000     C
    C   1.0     0.941561     0.583217     0.662099  Biso 1.000000     C
    C   1.0     0.414535     0.690909     0.683594  Biso 1.000000     C
    C   1.0     0.914542     0.690908     0.683598  Biso 1.000000     C
    C   1.0     0.453558     0.876401     0.848623  Biso 1.000000     C
    C   1.0     0.953566     0.876400     0.848626  Biso 1.000000     C
    C   1.0     0.438960     0.933599     0.776766  Biso 1.000000     C
    C   1.0     0.938968     0.933597     0.776769  Biso 1.000000     C
    C   1.0     0.460122     0.054829     0.828655  Biso 1.000000     C
    C   1.0     0.960130     0.054828     0.828657  Biso 1.000000     C
    C   1.0     0.494473     0.118000     0.949790  Biso 1.000000     C
    C   1.0     0.994481     0.118000     0.949792  Biso 1.000000     C
    C   1.0     0.489937     0.938612     0.975048  Biso 1.000000     C
    C   1.0     0.989946     0.938612     0.975051  Biso 1.000000     C
    C   1.0     0.172268     0.726451     0.600748  Biso 1.000000     C
    C   1.0     0.672278     0.726455     0.600748  Biso 1.000000     C
    C   1.0     0.222100     0.824045     0.693592  Biso 1.000000     C
    C   1.0     0.722110     0.824049     0.693592  Biso 1.000000     C
    C   1.0     0.104270     0.839605     0.662629  Biso 1.000000     C
    C   1.0     0.604279     0.839607     0.662627  Biso 1.000000     C
    C   1.0     0.205946     0.000000     0.832052  Biso 1.000000     C
    C   1.0     0.705954     0.000000     0.832051  Biso 1.000000     C
    C   1.0     0.274852     0.079390     0.853263  Biso 1.000000     C
    C   1.0     0.774860     0.079393     0.853264  Biso 1.000000     C
    C   1.0     0.302713     0.185722     0.950795  Biso 1.000000     C
    C   1.0     0.802720     0.185725     0.950796  Biso 1.000000     C
    C   1.0     0.261672     0.218620     0.027388  Biso 1.000000     C
    C   1.0     0.761678     0.218621     0.027389  Biso 1.000000     C
    C   1.0     0.192271     0.145062     0.000000  Biso 1.000000     C
    C   1.0     0.692277     0.145062     0.000000  Biso 1.000000     C
    C   1.0     0.164494     0.038472     0.907725  Biso 1.000000     C
    C   1.0     0.664502     0.038472     0.907724  Biso 1.000000     C
    C   1.0     0.366320     0.381817     0.191982  Biso 1.000000     C
    C   1.0     0.866325     0.381820     0.191983  Biso 1.000000     C
    C   1.0     0.249661     0.392826     0.185351  Biso 1.000000     C
    C   1.0     0.749666     0.392826     0.185352  Biso 1.000000     C
    C   1.0     0.302215     0.486476     0.280197  Biso 1.000000     C
    C   1.0     0.802219     0.486475     0.280199  Biso 1.000000     C
    C   1.0     0.444193     0.791430     0.401826  Biso 1.000000     C
    C   1.0     0.944201     0.791432     0.401831  Biso 1.000000     C
    C   1.0     0.422652     0.888504     0.372599  Biso 1.000000     C
    C   1.0     0.922661     0.888507     0.372604  Biso 1.000000     C
    C   1.0     0.317379     0.927533     0.437135  Biso 1.000000     C
    C   1.0     0.817389     0.927535     0.437141  Biso 1.000000     C
    C   1.0     0.269904     0.818759     0.361155  Biso 1.000000     C
    C   1.0     0.769913     0.818763     0.361153  Biso 1.000000     C
    C   1.0     0.289405     0.014379     0.506482  Biso 1.000000     C
    C   1.0     0.789412     0.014384     0.506478  Biso 1.000000     C
    C   1.0     0.336982     0.126316     0.585568  Biso 1.000000     C
    C   1.0     0.836991     0.126316     0.585575  Biso 1.000000     C
    C   1.0     0.192688     0.792637     0.350436  Biso 1.000000     C
    C   1.0     0.692698     0.792638     0.350439  Biso 1.000000     C
    C   1.0     0.058446     0.416758     0.337925  Biso 1.000000     C
    C   1.0     0.558460     0.416762     0.337928  Biso 1.000000     C
    C   1.0     0.085464     0.309066     0.316427  Biso 1.000000     C
    C   1.0     0.585474     0.309066     0.316427  Biso 1.000000     C
    C   1.0     0.046445     0.123576     0.151398  Biso 1.000000     C
    C   1.0     0.546452     0.123576     0.151395  Biso 1.000000     C
    C   1.0     0.061043     0.066379     0.223255  Biso 1.000000     C
    C   1.0     0.561050     0.066379     0.223252  Biso 1.000000     C
    C   1.0     0.039882     0.945149     0.171366  Biso 1.000000     C
    C   1.0     0.539889     0.945148     0.171363  Biso 1.000000     C
    C   1.0     0.005531     0.881977     0.050231  Biso 1.000000     C
    C   1.0     0.505538     0.881977     0.050228  Biso 1.000000     C
    C   1.0     0.010066     0.061365     0.024972  Biso 1.000000     C
    C   1.0     0.510073     0.061365     0.024970  Biso 1.000000     C
    N   1.0     0.400790     0.262811     0.417950  Biso 1.000000     N
    N   1.0     0.900799     0.262810     0.417952  Biso 1.000000     N
    N   1.0     0.321636     0.104345     0.266559  Biso 1.000000     N
    N   1.0     0.821644     0.104345     0.266559  Biso 1.000000     N
    N   1.0     0.209026     0.673661     0.871042  Biso 1.000000     N
    N   1.0     0.709033     0.673662     0.871041  Biso 1.000000     N
    N   1.0     0.125507     0.521615     0.716485  Biso 1.000000     N
    N   1.0     0.625515     0.521616     0.716484  Biso 1.000000     N
    N   1.0     0.099210     0.737159     0.582071  Biso 1.000000     N
    N   1.0     0.599220     0.737161     0.582069  Biso 1.000000     N
    N   1.0     0.178366     0.895623     0.733463  Biso 1.000000     N
    N   1.0     0.678375     0.895625     0.733463  Biso 1.000000     N
    N   1.0     0.290978     0.326308     0.128978  Biso 1.000000     N
    N   1.0     0.790983     0.326309     0.128979  Biso 1.000000     N
    N   1.0     0.374496     0.478356     0.283534  Biso 1.000000     N
    N   1.0     0.874500     0.478358     0.283535  Biso 1.000000     N
    O   1.0     0.068832     0.224453     0.513055  Biso 1.000000     O
    O   1.0     0.568837     0.224449     0.513049  Biso 1.000000     O
    O   1.0     0.024378     0.268161     0.665133  Biso 1.000000     O
    O   1.0     0.524386     0.268162     0.665130  Biso 1.000000     O
    O   1.0     0.445626     0.534607     0.557178  Biso 1.000000     O
    O   1.0     0.945627     0.534602     0.557177  Biso 1.000000     O
    O   1.0     0.457767     0.546680     0.739614  Biso 1.000000     O
    O   1.0     0.957780     0.546683     0.739619  Biso 1.000000     O
    O   1.0     0.435318     0.759649     0.808847  Biso 1.000000     O
    O   1.0     0.935326     0.759648     0.808850  Biso 1.000000     O
    O   1.0     0.107341     0.037722     0.548185  Biso 1.000000     O
    O   1.0     0.607349     0.037723     0.548183  Biso 1.000000     O
    O   1.0     0.431168     0.775515     0.486965  Biso 1.000000     O
    O   1.0     0.931177     0.775520     0.486972  Biso 1.000000     O
    O   1.0     0.475623     0.731811     0.334888  Biso 1.000000     O
    O   1.0     0.975630     0.731811     0.334894  Biso 1.000000     O
    O   1.0     0.054363     0.465359     0.442838  Biso 1.000000     O
    O   1.0     0.554377     0.465362     0.442841  Biso 1.000000     O
    O   1.0     0.042240     0.453303     0.260413  Biso 1.000000     O
    O   1.0     0.542254     0.453307     0.260416  Biso 1.000000     O
    O   1.0     0.064683     0.240328     0.191174  Biso 1.000000     O
    O   1.0     0.564690     0.240328     0.191173  Biso 1.000000     O
    O   1.0     0.392659     0.962247     0.451837  Biso 1.000000     O
    O   1.0     0.892669     0.962250     0.451843  Biso 1.000000     O
   Cd   1.0     0.009489     0.395659     0.575100  Biso 1.000000    Cd
   Cd   1.0     0.509497     0.395660     0.575097  Biso 1.000000    Cd
   Cd   1.0     0.490512     0.604314     0.424924  Biso 1.000000    Cd
   Cd   1.0     0.990516     0.604313     0.424927  Biso 1.000000    Cd
