#======================================================================

# CRYSTAL DATA

#----------------------------------------------------------------------

data_VESTA_phase_1


_pd_phase_name                         MOF
_cell_length_a                         21.59200
_cell_length_b                         12.58500
_cell_length_c                         17.17400
_cell_angle_alpha                      89.95800
_cell_angle_beta                       95.41400
_cell_angle_gamma                      90.03900
_symmetry_space_group_name_H-M         "P 1"
_symmetry_Int_Tables_number            1

loop_
_symmetry_equiv_pos_as_xyz
   "x, y, z"

loop_
   _atom_site_label
   _atom_site_occupancy
   _atom_site_fract_x
   _atom_site_fract_y
   _atom_site_fract_z
   _atom_site_adp_type
   _atom_site_B_iso_or_equiv
   _atom_site_type_symbol
    H   1.0     0.466073     0.363427     0.794075  Biso 1.000000     H
    H   1.0     0.966316     0.363490     0.795892  Biso 1.000000     H
    H   1.0     0.497633     0.321149     0.707284  Biso 1.000000     H
    H   1.0     0.997609     0.321257     0.708866  Biso 1.000000     H
    H   1.0     0.438548     0.419512     0.702545  Biso 1.000000     H
    H   1.0     0.938448     0.419428     0.704437  Biso 1.000000     H
    H   1.0     0.258331     0.053086     0.643036  Biso 1.000000     H
    H   1.0     0.759170     0.051995     0.644105  Biso 1.000000     H
    H   1.0     0.324304     0.013635     0.596543  Biso 1.000000     H
    H   1.0     0.825371     0.013756     0.597554  Biso 1.000000     H
    H   1.0     0.256425     0.327078     0.331938  Biso 1.000000     H
    H   1.0     0.756595     0.327550     0.333770  Biso 1.000000     H
    H   1.0     0.321590     0.371072     0.395594  Biso 1.000000     H
    H   1.0     0.822098     0.371452     0.396936  Biso 1.000000     H
    H   1.0     0.327842     0.254755     0.339535  Biso 1.000000     H
    H   1.0     0.827894     0.254929     0.340985  Biso 1.000000     H
    H   1.0     0.485400     0.014554     0.318100  Biso 1.000000     H
    H   1.0     0.984470     0.015773     0.316955  Biso 1.000000     H
    H   1.0     0.049123     0.094461     0.293402  Biso 1.000000     H
    H   1.0     0.549922     0.093643     0.294752  Biso 1.000000     H
    H   1.0     0.059974    -0.009310     0.363787  Biso 1.000000     H
    H   1.0     0.560855    -0.009965     0.365278  Biso 1.000000     H
    H   1.0     0.017305     0.374034     0.574963  Biso 1.000000     H
    H   1.0     0.515827     0.373822     0.575320  Biso 1.000000     H
    H   1.0     0.088377     0.301715     0.586884  Biso 1.000000     H
    H   1.0     0.586872     0.301661     0.588598  Biso 1.000000     H
    H   1.0     0.191317     0.619504     0.361186  Biso 1.000000     H
    H   1.0     0.691414     0.618461     0.363044  Biso 1.000000     H
    H   1.0     0.236134     0.508167     0.395835  Biso 1.000000     H
    H   1.0     0.736272     0.507380     0.398172  Biso 1.000000     H
    H   1.0     0.178117     0.492709     0.316113  Biso 1.000000     H
    H   1.0     0.678259     0.491327     0.318527  Biso 1.000000     H
    H   1.0     0.284206     0.863276     0.703469  Biso 1.000000     H
    H   1.0     0.783664     0.863848     0.705752  Biso 1.000000     H
    H   1.0     0.252893     0.821390     0.790601  Biso 1.000000     H
    H   1.0     0.751869     0.821344     0.792422  Biso 1.000000     H
    H   1.0     0.312040     0.919738     0.794724  Biso 1.000000     H
    H   1.0     0.811109     0.919549     0.797401  Biso 1.000000     H
    H   1.0     0.491761     0.553357     0.855862  Biso 1.000000     H
    H   1.0     0.989836     0.551366     0.857777  Biso 1.000000     H
    H   1.0     0.425493     0.513887     0.901829  Biso 1.000000     H
    H   1.0     0.923641     0.513386     0.904529  Biso 1.000000     H
    H   1.0     0.492332     0.826697     0.166781  Biso 1.000000     H
    H   1.0     0.993893     0.828609     0.167014  Biso 1.000000     H
    H   1.0     0.426887     0.869932     0.103262  Biso 1.000000     H
    H   1.0     0.928220     0.872178     0.104024  Biso 1.000000     H
    H   1.0     0.421237     0.753313     0.159311  Biso 1.000000     H
    H   1.0     0.922499     0.756186     0.160717  Biso 1.000000     H
    H   1.0     0.265526     0.516480     0.182001  Biso 1.000000     H
    H   1.0     0.763926     0.515518     0.184056  Biso 1.000000     H
    H   1.0     0.200756     0.594849     0.205232  Biso 1.000000     H
    H   1.0     0.699058     0.593884     0.206953  Biso 1.000000     H
    H   1.0     0.190097     0.490634     0.135267  Biso 1.000000     H
    H   1.0     0.688658     0.489985     0.136707  Biso 1.000000     H
    H   1.0     0.233281     0.874178     0.923487  Biso 1.000000     H
    H   1.0     0.732615     0.873903     0.925839  Biso 1.000000     H
    H   1.0     0.162109     0.802066     0.911136  Biso 1.000000     H
    H   1.0     0.661441     0.801804     0.913352  Biso 1.000000     H
    H   1.0     0.059000     0.119341     0.136683  Biso 1.000000     H
    H   1.0     0.557466     0.118919     0.138098  Biso 1.000000     H
    H   1.0     0.014324     0.007549     0.102534  Biso 1.000000     H
    H   1.0     0.512926     0.007273     0.103321  Biso 1.000000     H
    H   1.0     0.072563     0.992778     0.182064  Biso 1.000000     H
    H   1.0     0.570680     0.992206     0.183363  Biso 1.000000     H
    H   1.0     0.033659     0.636515     0.204070  Biso 1.000000     H
    H   1.0     0.533897     0.636563     0.205891  Biso 1.000000     H
    H   1.0     0.002362     0.678744     0.291094  Biso 1.000000     H
    H   1.0     0.502334     0.678836     0.292681  Biso 1.000000     H
    H   1.0     0.061523     0.580572     0.295524  Biso 1.000000     H
    H   1.0     0.561420     0.580475     0.297419  Biso 1.000000     H
    H   1.0     0.240809     0.947993     0.355859  Biso 1.000000     H
    H   1.0     0.741641     0.946896     0.356924  Biso 1.000000     H
    H   1.0     0.174610     0.986239     0.402412  Biso 1.000000     H
    H   1.0     0.675671     0.986354     0.403421  Biso 1.000000     H
    H   1.0     0.243363     0.672440     0.666196  Biso 1.000000     H
    H   1.0     0.743547     0.672924     0.668033  Biso 1.000000     H
    H   1.0     0.177861     0.628548     0.603024  Biso 1.000000     H
    H   1.0     0.678381     0.628931     0.604379  Biso 1.000000     H
    H   1.0     0.172068     0.745074     0.658972  Biso 1.000000     H
    H   1.0     0.672132     0.745253     0.660434  Biso 1.000000     H
    H   1.0     0.015514     0.984210     0.683012  Biso 1.000000     H
    H   1.0     0.514572     0.985439     0.681877  Biso 1.000000     H
    H   1.0     0.450050     0.906351     0.705225  Biso 1.000000     H
    H   1.0     0.950859     0.905529     0.706569  Biso 1.000000     H
    H   1.0     0.439116     0.000000     0.634701  Biso 1.000000     H
    H   1.0     0.940009     0.000000     0.636188  Biso 1.000000     H
    H   1.0     0.484139     0.626174     0.424655  Biso 1.000000     H
    H   1.0     0.982658     0.625966     0.424996  Biso 1.000000     H
    H   1.0     0.413095     0.698337     0.411379  Biso 1.000000     H
    H   1.0     0.911587     0.698289     0.413082  Biso 1.000000     H
    H   1.0     0.308555     0.381535     0.636934  Biso 1.000000     H
    H   1.0     0.808654     0.380489     0.638779  Biso 1.000000     H
    H   1.0     0.263698     0.492617     0.601807  Biso 1.000000     H
    H   1.0     0.763837     0.491827     0.604136  Biso 1.000000     H
    H   1.0     0.321712     0.508668     0.681451  Biso 1.000000     H
    H   1.0     0.821856     0.507282     0.683854  Biso 1.000000     H
    H   1.0     0.216308     0.136153     0.294223  Biso 1.000000     H
    H   1.0     0.715761     0.136722     0.296510  Biso 1.000000     H
    H   1.0     0.248102     0.178657     0.207553  Biso 1.000000     H
    H   1.0     0.747073     0.178612     0.209379  Biso 1.000000     H
    H   1.0     0.188863     0.080452     0.202575  Biso 1.000000     H
    H   1.0     0.687927     0.080261     0.205254  Biso 1.000000     H
    H   1.0     0.010132     0.448628     0.142196  Biso 1.000000     H
    H   1.0     0.508197     0.446623     0.144111  Biso 1.000000     H
    H   1.0     0.076328     0.486610     0.095444  Biso 1.000000     H
    H   1.0     0.574465     0.486102     0.098147  Biso 1.000000     H
    H   1.0     0.006080     0.171386     0.832960  Biso 1.000000     H
    H   1.0     0.507642     0.173292     0.833191  Biso 1.000000     H
    H   1.0     0.071752     0.127813     0.895951  Biso 1.000000     H
    H   1.0     0.573086     0.130057     0.896712  Biso 1.000000     H
    H   1.0     0.077475     0.243806     0.839259  Biso 1.000000     H
    H   1.0     0.578737     0.246677     0.840666  Biso 1.000000     H
    H   1.0     0.236038     0.484484     0.815921  Biso 1.000000     H
    H   1.0     0.734440     0.483514     0.817970  Biso 1.000000     H
    H   1.0     0.300908     0.406125     0.793021  Biso 1.000000     H
    H   1.0     0.799209     0.405143     0.794737  Biso 1.000000     H
    H   1.0     0.311305     0.510021     0.863270  Biso 1.000000     H
    H   1.0     0.809870     0.509359     0.864701  Biso 1.000000     H
    H   1.0     0.267363     0.126095     0.074135  Biso 1.000000     H
    H   1.0     0.766693     0.125820     0.076488  Biso 1.000000     H
    H   1.0     0.338536     0.198196     0.086612  Biso 1.000000     H
    H   1.0     0.837864     0.197935     0.088834  Biso 1.000000     H
    H   1.0     0.442505     0.881071     0.861870  Biso 1.000000     H
    H   1.0     0.940972     0.880654     0.863291  Biso 1.000000     H
    H   1.0     0.487048     0.992713     0.896649  Biso 1.000000     H
    H   1.0     0.985648     0.992447     0.897437  Biso 1.000000     H
    H   1.0     0.429295     0.007786     0.816607  Biso 1.000000     H
    H   1.0     0.927407     0.007215     0.817908  Biso 1.000000     H
    C   1.0     0.454720     0.345583     0.731947  Biso 1.000000     C
    C   1.0     0.954793     0.345579     0.733820  Biso 1.000000     C
    C   1.0     0.406668     0.260702     0.722299  Biso 1.000000     C
    C   1.0     0.906799     0.260585     0.724316  Biso 1.000000     C
    C   1.0     0.338272     0.148526     0.672626  Biso 1.000000     C
    C   1.0     0.838697     0.148169     0.674225  Biso 1.000000     C
    C   1.0     0.298121     0.083411     0.614501  Biso 1.000000     C
    C   1.0     0.798896     0.083020     0.615799  Biso 1.000000     C
    C   1.0     0.274420     0.142214     0.541892  Biso 1.000000     C
    C   1.0     0.775080     0.142315     0.543453  Biso 1.000000     C
    C   1.0     0.274364     0.235694     0.436836  Biso 1.000000     C
    C   1.0     0.774824     0.236350     0.438684  Biso 1.000000     C
    C   1.0     0.295757     0.300962     0.372318  Biso 1.000000     C
    C   1.0     0.796051     0.301408     0.373948  Biso 1.000000     C
    C   1.0     0.027954     0.053578     0.340791  Biso 1.000000     C
    C   1.0     0.528738     0.052648     0.342076  Biso 1.000000     C
    C   1.0     0.014873     0.129470     0.403456  Biso 1.000000     C
    C   1.0     0.515200     0.128570     0.404491  Biso 1.000000     C
    C   1.0     0.026554     0.253044     0.490205  Biso 1.000000     C
    C   1.0     0.526046     0.252552     0.491067  Biso 1.000000     C
    C   1.0     0.053896     0.338441     0.543378  Biso 1.000000     C
    C   1.0     0.552827     0.338219     0.544466  Biso 1.000000     C
    C   1.0     0.084458     0.426243     0.502328  Biso 1.000000     C
    C   1.0     0.583898     0.426039     0.504001  Biso 1.000000     C
    C   1.0     0.142733     0.508995     0.427504  Biso 1.000000     C
    C   1.0     0.642815     0.508440     0.429762  Biso 1.000000     C
    C   1.0     0.189506     0.533850     0.371989  Biso 1.000000     C
    C   1.0     0.689640     0.532897     0.374231  Biso 1.000000     C
    C   1.0     0.295724     0.845700     0.765616  Biso 1.000000     C
    C   1.0     0.794863     0.845772     0.767875  Biso 1.000000     C
    C   1.0     0.343729     0.760840     0.775377  Biso 1.000000     C
    C   1.0     0.842753     0.760728     0.777663  Biso 1.000000     C
    C   1.0     0.411970     0.648783     0.825589  Biso 1.000000     C
    C   1.0     0.910548     0.647943     0.827782  Biso 1.000000     C
    C   1.0     0.451831     0.583678     0.884042  Biso 1.000000     C
    C   1.0     0.950213     0.582536     0.886142  Biso 1.000000     C
    C   1.0     0.475193     0.642393     0.956814  Biso 1.000000     C
    C   1.0     0.974257     0.641885     0.958264  Biso 1.000000     C
    C   1.0     0.474689     0.735405     0.061909  Biso 1.000000     C
    C   1.0     0.975074     0.736578     0.062687  Biso 1.000000     C
    C   1.0     0.453058     0.800142     0.126461  Biso 1.000000     C
    C   1.0     0.954243     0.802251     0.127243  Biso 1.000000     C
    C   1.0     0.221988     0.553860     0.158009  Biso 1.000000     C
    C   1.0     0.720505     0.553058     0.159829  Biso 1.000000     C
    C   1.0     0.235039     0.629544     0.095118  Biso 1.000000     C
    C   1.0     0.733872     0.628977     0.097226  Biso 1.000000     C
    C   1.0     0.223599     0.753024     0.008117  Biso 1.000000     C
    C   1.0     0.722742     0.752747     0.010451  Biso 1.000000     C
    C   1.0     0.196510     0.838584     0.954839  Biso 1.000000     C
    C   1.0     0.695786     0.838353     0.957112  Biso 1.000000     C
    C   1.0     0.165926     0.926388     0.995721  Biso 1.000000     C
    C   1.0     0.665105     0.926159     0.997873  Biso 1.000000     C
    C   1.0     0.107613     0.008991     0.070454  Biso 1.000000     C
    C   1.0     0.606474     0.008694     0.072218  Biso 1.000000     C
    C   1.0     0.060943     0.033674     0.126099  Biso 1.000000     C
    C   1.0     0.559440     0.033282     0.127396  Biso 1.000000     C
    C   1.0     0.045179     0.654423     0.266142  Biso 1.000000     C
    C   1.0     0.545248     0.654404     0.268019  Biso 1.000000     C
    C   1.0     0.093174     0.739415     0.275651  Biso 1.000000     C
    C   1.0     0.593300     0.739286     0.277670  Biso 1.000000     C
    C   1.0     0.161279     0.851826     0.325742  Biso 1.000000     C
    C   1.0     0.661697     0.851461     0.327341  Biso 1.000000     C
    C   1.0     0.201082     0.916972     0.384166  Biso 1.000000     C
    C   1.0     0.701852     0.916575     0.385463  Biso 1.000000     C
    C   1.0     0.224896     0.857676     0.456512  Biso 1.000000     C
    C   1.0     0.725554     0.857774     0.458072  Biso 1.000000     C
    C   1.0     0.225145     0.763642     0.561281  Biso 1.000000     C
    C   1.0     0.725610     0.764303     0.563132  Biso 1.000000     C
    C   1.0     0.203911     0.698587     0.626015  Biso 1.000000     C
    C   1.0     0.704216     0.699041     0.627653  Biso 1.000000     C
    C   1.0     0.471234     0.947346     0.657902  Biso 1.000000     C
    C   1.0     0.972027     0.946411     0.659180  Biso 1.000000     C
    C   1.0     0.484770     0.871425     0.595486  Biso 1.000000     C
    C   1.0     0.985102     0.870521     0.596511  Biso 1.000000     C
    C   1.0     0.473923     0.747444     0.508909  Biso 1.000000     C
    C   1.0     0.973414     0.746951     0.509759  Biso 1.000000     C
    C   1.0     0.447140     0.661778     0.455510  Biso 1.000000     C
    C   1.0     0.946069     0.661559     0.456585  Biso 1.000000     C
    C   1.0     0.416069     0.573957     0.495976  Biso 1.000000     C
    C   1.0     0.915507     0.573756     0.497633  Biso 1.000000     C
    C   1.0     0.357154     0.491556     0.570216  Biso 1.000000     C
    C   1.0     0.857235     0.491001     0.572460  Biso 1.000000     C
    C   1.0     0.310329     0.467099     0.625748  Biso 1.000000     C
    C   1.0     0.810465     0.466143     0.627977  Biso 1.000000     C
    C   1.0     0.205108     0.154229     0.232101  Biso 1.000000     C
    C   1.0     0.704243     0.154299     0.234363  Biso 1.000000     C
    C   1.0     0.157218     0.239271     0.222313  Biso 1.000000     C
    C   1.0     0.656237     0.239157     0.224603  Biso 1.000000     C
    C   1.0     0.089421     0.352055     0.172193  Biso 1.000000     C
    C   1.0     0.587993     0.351208     0.174389  Biso 1.000000     C
    C   1.0     0.049756     0.417459     0.113832  Biso 1.000000     C
    C   1.0     0.548130     0.416308     0.115934  Biso 1.000000     C
    C   1.0     0.025714     0.358108     0.041710  Biso 1.000000     C
    C   1.0     0.524773     0.357591     0.043161  Biso 1.000000     C
    C   1.0     0.024898     0.263414     0.937288  Biso 1.000000     C
    C   1.0     0.525282     0.264582     0.938064  Biso 1.000000     C
    C   1.0     0.045729     0.197742     0.872732  Biso 1.000000     C
    C   1.0     0.546916     0.199847     0.873513  Biso 1.000000     C
    C   1.0     0.279460     0.446946     0.840146  Biso 1.000000     C
    C   1.0     0.777979     0.446133     0.841960  Biso 1.000000     C
    C   1.0     0.266097     0.371022     0.902747  Biso 1.000000     C
    C   1.0     0.764929     0.370450     0.904854  Biso 1.000000     C
    C   1.0     0.277229     0.247248     0.989520  Biso 1.000000     C
    C   1.0     0.776371     0.246972     0.991855  Biso 1.000000     C
    C   1.0     0.304189     0.161644     0.042857  Biso 1.000000     C
    C   1.0     0.803462     0.161414     0.045134  Biso 1.000000     C
    C   1.0     0.334869     0.073837     0.002096  Biso 1.000000     C
    C   1.0     0.834047     0.073609     0.004252  Biso 1.000000     C
    C   1.0     0.393500     0.991299     0.927751  Biso 1.000000     C
    C   1.0     0.892359     0.991005     0.929520  Biso 1.000000     C
    C   1.0     0.440533     0.966709     0.872574  Biso 1.000000     C
    C   1.0     0.939028     0.966321     0.873874  Biso 1.000000     C
    N   1.0     0.056948     0.203547     0.434975  Biso 1.000000     N
    N   1.0     0.557047     0.202539     0.436668  Biso 1.000000     N
    N   1.0     0.461574     0.131629     0.436382  Biso 1.000000     N
    N   1.0     0.961668     0.132125     0.436397  Biso 1.000000     N
    N   1.0     0.468908     0.211361     0.492062  Biso 1.000000     N
    N   1.0     0.969519     0.211652     0.492238  Biso 1.000000     N
    N   1.0     0.126248     0.409629     0.448136  Biso 1.000000     N
    N   1.0     0.625819     0.409241     0.450046  Biso 1.000000     N
    N   1.0     0.074883     0.528445     0.515508  Biso 1.000000     N
    N   1.0     0.574759     0.528301     0.517496  Biso 1.000000     N
    N   1.0     0.112249     0.581465     0.466871  Biso 1.000000     N
    N   1.0     0.612559     0.581083     0.469238  Biso 1.000000     N
    N   1.0     0.215812     0.202834     0.443552  Biso 1.000000     N
    N   1.0     0.716249     0.203489     0.445487  Biso 1.000000     N
    N   1.0     0.215564     0.142790     0.511488  Biso 1.000000     N
    N   1.0     0.716167     0.143035     0.513259  Biso 1.000000     N
    N   1.0     0.312659     0.198740     0.497685  Biso 1.000000     N
    N   1.0     0.813265     0.199146     0.499361  Biso 1.000000     N
    N   1.0     0.382879     0.219215     0.652856  Biso 1.000000     N
    N   1.0     0.883625     0.218460     0.654805  Biso 1.000000     N
    N   1.0     0.334712     0.143948     0.749357  Biso 1.000000     N
    N   1.0     0.834414     0.144349     0.750828  Biso 1.000000     N
    N   1.0     0.378781     0.216093     0.780979  Biso 1.000000     N
    N   1.0     0.878295     0.216645     0.782769  Biso 1.000000     N
    N   1.0     0.192991     0.703338     0.063151  Biso 1.000000     N
    N   1.0     0.691996     0.703064     0.065327  Biso 1.000000     N
    N   1.0     0.288373     0.632436     0.062531  Biso 1.000000     N
    N   1.0     0.787280     0.631717     0.064796  Biso 1.000000     N
    N   1.0     0.280671     0.711877     0.006567  Biso 1.000000     N
    N   1.0     0.779775     0.711365     0.008975  Biso 1.000000     N
    N   1.0     0.124083     0.909706     0.049846  Biso 1.000000     N
    N   1.0     0.623012     0.909428     0.051681  Biso 1.000000     N
    N   1.0     0.175551     0.028606     0.982514  Biso 1.000000     N
    N   1.0     0.674828     0.028397     0.984819  Biso 1.000000     N
    N   1.0     0.138139     0.081525     0.031063  Biso 1.000000     N
    N   1.0     0.637203     0.081279     0.033136  Biso 1.000000     N
    N   1.0     0.033562     0.703642     0.055536  Biso 1.000000     N
    N   1.0     0.533316     0.702630     0.055719  Biso 1.000000     N
    N   1.0     0.033290     0.642803     0.987998  Biso 1.000000     N
    N   1.0     0.533921     0.642868     0.987733  Biso 1.000000     N
    N   1.0     0.436687     0.698740     0.000000  Biso 1.000000     N
    N   1.0     0.936329     0.698966     0.000000  Biso 1.000000     N
    N   1.0     0.367104     0.719096     0.844948  Biso 1.000000     N
    N   1.0     0.865839     0.718524     0.847213  Biso 1.000000     N
    N   1.0     0.416022     0.644595     0.748946  Biso 1.000000     N
    N   1.0     0.914835     0.644083     0.751196  Biso 1.000000     N
    N   1.0     0.372065     0.716684     0.716962  Biso 1.000000     N
    N   1.0     0.871168     0.716650     0.719254  Biso 1.000000     N
    N   1.0     0.442923     0.797455     0.563310  Biso 1.000000     N
    N   1.0     0.943025     0.796445     0.564995  Biso 1.000000     N
    N   1.0     0.038304     0.867868     0.563564  Biso 1.000000     N
    N   1.0     0.538395     0.868368     0.563592  Biso 1.000000     N
    N   1.0     0.030449     0.788343     0.507722  Biso 1.000000     N
    N   1.0     0.531060     0.788636     0.507913  Biso 1.000000     N
    N   1.0     0.374150     0.590756     0.549933  Biso 1.000000     N
    N   1.0     0.873722     0.590367     0.551832  Biso 1.000000     N
    N   1.0     0.425208     0.471696     0.482479  Biso 1.000000     N
    N   1.0     0.925079     0.471554     0.484446  Biso 1.000000     N
    N   1.0     0.387409     0.418913     0.530738  Biso 1.000000     N
    N   1.0     0.887715     0.418532     0.533085  Biso 1.000000     N
    N   1.0     0.283722     0.796499     0.554482  Biso 1.000000     N
    N   1.0     0.784162     0.797158     0.556414  Biso 1.000000     N
    N   1.0     0.283808     0.856952     0.486710  Biso 1.000000     N
    N   1.0     0.784411     0.857196     0.488475  Biso 1.000000     N
    N   1.0     0.186708     0.800847     0.500601  Biso 1.000000     N
    N   1.0     0.687315     0.801254     0.502282  Biso 1.000000     N
    N   1.0     0.116349     0.781539     0.345162  Biso 1.000000     N
    N   1.0     0.617090     0.780772     0.347114  Biso 1.000000     N
    N   1.0     0.165564     0.855644     0.249139  Biso 1.000000     N
    N   1.0     0.665255     0.856040     0.250610  Biso 1.000000     N
    N   1.0     0.121680     0.783352     0.217199  Biso 1.000000     N
    N   1.0     0.621185     0.783896     0.218989  Biso 1.000000     N
    N   1.0     0.307973     0.296933     0.934641  Biso 1.000000     N
    N   1.0     0.806977     0.296656     0.936820  Biso 1.000000     N
    N   1.0     0.212691     0.368282     0.935182  Biso 1.000000     N
    N   1.0     0.711596     0.367559     0.937444  Biso 1.000000     N
    N   1.0     0.220197     0.288632     0.991001  Biso 1.000000     N
    N   1.0     0.719299     0.288120     0.993409  Biso 1.000000     N
    N   1.0     0.376960     0.090566     0.948285  Biso 1.000000     N
    N   1.0     0.875887     0.090290     0.950125  Biso 1.000000     N
    N   1.0     0.325148     0.971600     0.015155  Biso 1.000000     N
    N   1.0     0.824424     0.971392     0.017464  Biso 1.000000     N
    N   1.0     0.362773     0.918716     0.966839  Biso 1.000000     N
    N   1.0     0.861836     0.918472     0.968916  Biso 1.000000     N
    N   1.0     0.466655     0.297357     0.944251  Biso 1.000000     N
    N   1.0     0.966411     0.296351     0.944437  Biso 1.000000     N
    N   1.0     0.466046     0.357117     0.012237  Biso 1.000000     N
    N   1.0     0.966681     0.357191     0.011975  Biso 1.000000     N
    N   1.0     0.063642     0.301026    -0.002474  Biso 1.000000     N
    N   1.0     0.563281     0.301245    -0.000686  Biso 1.000000     N
    N   1.0     0.134132     0.281475     0.152763  Biso 1.000000     N
    N   1.0     0.632861     0.280899     0.155032  Biso 1.000000     N
    N   1.0     0.085134     0.355914     0.248779  Biso 1.000000     N
    N   1.0     0.583940     0.355397     0.251032  Biso 1.000000     N
    N   1.0     0.128801     0.283349     0.280722  Biso 1.000000     N
    N   1.0     0.627900     0.283312     0.283018  Biso 1.000000     N
   Zn   1.0     0.135345     0.264372     0.397338  Biso 1.000000    Zn
   Zn   1.0     0.635109     0.264157     0.399847  Biso 1.000000    Zn
   Zn   1.0     0.394689     0.259830     0.540354  Biso 1.000000    Zn
   Zn   1.0     0.895842     0.259470     0.542668  Biso 1.000000    Zn
   Zn   1.0     0.114734     0.764426     0.100249  Biso 1.000000    Zn
   Zn   1.0     0.613667     0.764291     0.102471  Biso 1.000000    Zn
   Zn   1.0     0.354664     0.759719     0.956962  Biso 1.000000    Zn
   Zn   1.0     0.853748     0.759445     0.959727  Biso 1.000000    Zn
   Zn   1.0     0.364861     0.735838     0.600137  Biso 1.000000    Zn
   Zn   1.0     0.864628     0.735623     0.602638  Biso 1.000000    Zn
   Zn   1.0     0.104129     0.740527     0.457300  Biso 1.000000    Zn
   Zn   1.0     0.605282     0.740167     0.459625  Biso 1.000000    Zn
   Zn   1.0     0.386302     0.235703     0.897495  Biso 1.000000    Zn
   Zn   1.0     0.885237     0.235570     0.899728  Biso 1.000000    Zn
   Zn   1.0     0.146225     0.240551     0.040256  Biso 1.000000    Zn
   Zn   1.0     0.645307     0.240277     0.043022  Biso 1.000000    Zn
