#======================================================================

# CRYSTAL DATA

#----------------------------------------------------------------------

data_VESTA_phase_1


_pd_phase_name                         MOF
_cell_length_a                         14.42000
_cell_length_b                         16.43300
_cell_length_c                         18.99100
_cell_angle_alpha                      115.84200
_cell_angle_beta                       102.84800
_cell_angle_gamma                      89.99300
_symmetry_space_group_name_H-M         "P 1"
_symmetry_Int_Tables_number            1

loop_
_symmetry_equiv_pos_as_xyz
   "x, y, z"

loop_
   _atom_site_label
   _atom_site_occupancy
   _atom_site_fract_x
   _atom_site_fract_y
   _atom_site_fract_z
   _atom_site_adp_type
   _atom_site_B_iso_or_equiv
   _atom_site_type_symbol
    H   1.0     0.056760     0.017506     0.828616  Biso 1.000000     H
    H   1.0     0.164887     0.897416     0.828066  Biso 1.000000     H
    H   1.0     0.043579     0.738207     0.574147  Biso 1.000000     H
    H   1.0     0.935659     0.858628     0.574823  Biso 1.000000     H
    H   1.0     0.503780     0.485975     0.869983  Biso 1.000000     H
    H   1.0     0.392405     0.331352     0.614303  Biso 1.000000     H
    H   1.0     0.502247     0.213143     0.613943  Biso 1.000000     H
    H   1.0     0.613090     0.366914     0.869880  Biso 1.000000     H
    H   1.0     0.856149     0.032286     0.887909  Biso 1.000000     H
    H   1.0     0.951877     0.048160     0.021326  Biso 1.000000     H
    H   1.0     0.942586     0.338499     0.115904  Biso 1.000000     H
    H   1.0     0.848192     0.311122     0.978064  Biso 1.000000     H
    H   1.0     0.178049     0.143621     0.253339  Biso 1.000000     H
    H   1.0     0.015318     0.417216     0.354882  Biso 1.000000     H
    H   1.0     0.081466     0.532780     0.497820  Biso 1.000000     H
    H   1.0     0.320342     0.398813     0.522635  Biso 1.000000     H
    H   1.0     0.268114     0.279330     0.379783  Biso 1.000000     H
    H   1.0     0.556739     0.811607     0.828155  Biso 1.000000     H
    H   1.0     0.664889     0.930945     0.827469  Biso 1.000000     H
    H   1.0     0.543477     0.834176     0.573543  Biso 1.000000     H
    H   1.0     0.435683     0.714442     0.574308  Biso 1.000000     H
    H   1.0     0.004953     0.384128     0.869905  Biso 1.000000     H
    H   1.0     0.891811     0.282553     0.614551  Biso 1.000000     H
    H   1.0     0.001244     0.400655     0.614186  Biso 1.000000     H
    H   1.0     0.114098     0.503162     0.869749  Biso 1.000000     H
    H   1.0     0.357846     0.856521     0.888886  Biso 1.000000     H
    H   1.0     0.453599     0.974087     0.022897  Biso 1.000000     H
    H   1.0     0.441409     0.777865     0.115787  Biso 1.000000     H
    H   1.0     0.347087     0.667408     0.977510  Biso 1.000000     H
    H   1.0     0.679195     0.110203     0.255262  Biso 1.000000     H
    H   1.0     0.515028     0.937952     0.355065  Biso 1.000000     H
    H   1.0     0.581221     0.964652     0.497525  Biso 1.000000     H
    H   1.0     0.821563     0.122261     0.523027  Biso 1.000000     H
    H   1.0     0.769316     0.099447     0.380618  Biso 1.000000     H
    H   1.0     0.443245     0.188362     0.171876  Biso 1.000000     H
    H   1.0     0.335093     0.069023     0.172558  Biso 1.000000     H
    H   1.0     0.456515     0.165770     0.426479  Biso 1.000000     H
    H   1.0     0.564313     0.285505     0.425720  Biso 1.000000     H
    H   1.0     0.995032     0.615822     0.130115  Biso 1.000000     H
    H   1.0     0.108166     0.717408     0.385472  Biso 1.000000     H
    H   1.0     0.998738     0.599304     0.385838  Biso 1.000000     H
    H   1.0     0.885893     0.496786     0.130273  Biso 1.000000     H
    H   1.0     0.642119     0.143437     0.111139  Biso 1.000000     H
    H   1.0     0.546367     0.025871     0.977128  Biso 1.000000     H
    H   1.0     0.558574     0.222085     0.884233  Biso 1.000000     H
    H   1.0     0.652893     0.332543     0.022510  Biso 1.000000     H
    H   1.0     0.320785     0.889745     0.744759  Biso 1.000000     H
    H   1.0     0.484954     0.061995     0.644956  Biso 1.000000     H
    H   1.0     0.418761     0.035299     0.502497  Biso 1.000000     H
    H   1.0     0.178416     0.877692     0.476992  Biso 1.000000     H
    H   1.0     0.230663     0.900502     0.619400  Biso 1.000000     H
    H   1.0     0.943215     0.982441     0.171402  Biso 1.000000     H
    H   1.0     0.835085     0.102528     0.171950  Biso 1.000000     H
    H   1.0     0.956395     0.261744     0.425866  Biso 1.000000     H
    H   1.0     0.064316     0.141325     0.425194  Biso 1.000000     H
    H   1.0     0.496209     0.513986     0.130035  Biso 1.000000     H
    H   1.0     0.607561     0.668593     0.385720  Biso 1.000000     H
    H   1.0     0.497717     0.786802     0.386080  Biso 1.000000     H
    H   1.0     0.386895     0.633046     0.130140  Biso 1.000000     H
    H   1.0     0.143823     0.967667     0.112114  Biso 1.000000     H
    H   1.0     0.048093     0.951790     0.978697  Biso 1.000000     H
    H   1.0     0.057402     0.661453     0.884119  Biso 1.000000     H
    H   1.0     0.151796     0.688832     0.021959  Biso 1.000000     H
    H   1.0     0.821930     0.856326     0.746681  Biso 1.000000     H
    H   1.0     0.984660     0.582730     0.645140  Biso 1.000000     H
    H   1.0     0.918510     0.467167     0.502201  Biso 1.000000     H
    H   1.0     0.679637     0.601136     0.477388  Biso 1.000000     H
    H   1.0     0.731865     0.720618     0.620242  Biso 1.000000     H
    C   1.0     0.168339     0.735096     0.703093  Biso 1.000000     C
    C   1.0     0.915931     0.010399     0.705340  Biso 1.000000     C
    C   1.0    -0.010667     0.944607     0.701989  Biso 1.000000     C
    C   1.0     0.055579     0.956637     0.773056  Biso 1.000000     C
    C   1.0     0.115227     0.890084     0.772729  Biso 1.000000     C
    C   1.0     0.109852     0.810193     0.701310  Biso 1.000000     C
    C   1.0     0.046718     0.800112     0.629412  Biso 1.000000     C
    C   1.0    -0.013096     0.866800     0.629733  Biso 1.000000     C
    C   1.0     0.380005     0.489151     0.740733  Biso 1.000000     C
    C   1.0     0.442003     0.416069     0.742066  Biso 1.000000     C
    C   1.0     0.503287     0.425383     0.814386  Biso 1.000000     C
    C   1.0     0.440786     0.338422     0.670027  Biso 1.000000     C
    C   1.0     0.633008     0.213645     0.739746  Biso 1.000000     C
    C   1.0     0.563679     0.282346     0.741954  Biso 1.000000     C
    C   1.0     0.501150     0.272495     0.669908  Biso 1.000000     C
    C   1.0     0.563530     0.359065     0.814306  Biso 1.000000     C
    C   1.0     0.876827     0.098762     0.939755  Biso 1.000000     C
    C   1.0     0.930625     0.107618     0.013432  Biso 1.000000     C
    C   1.0     0.957952     0.195089     0.076943  Biso 1.000000     C
    C   1.0     0.925655     0.270203     0.066461  Biso 1.000000     C
    C   1.0     0.872260     0.254729    -0.009567  Biso 1.000000     C
    C   1.0     0.101596     0.269694     0.271210  Biso 1.000000     C
    C   1.0     0.126972     0.180493     0.230935  Biso 1.000000     C
    C   1.0     0.136606     0.338248     0.354858  Biso 1.000000     C
    C   1.0     0.083897     0.411037     0.389273  Biso 1.000000     C
    C   1.0     0.119619     0.474954     0.468811  Biso 1.000000     C
    C   1.0     0.253814     0.400026     0.482648  Biso 1.000000     C
    C   1.0     0.223442     0.333477     0.403318  Biso 1.000000     C
    C   1.0     0.668356     0.967276     0.702447  Biso 1.000000     C
    C   1.0     0.415881     0.694466     0.705053  Biso 1.000000     C
    C   1.0     0.489302     0.756740     0.701523  Biso 1.000000     C
    C   1.0     0.555555     0.816372     0.772549  Biso 1.000000     C
    C   1.0     0.615236     0.882505     0.772144  Biso 1.000000     C
    C   1.0     0.609825     0.890418     0.700707  Biso 1.000000     C
    C   1.0     0.546669     0.828012     0.628846  Biso 1.000000     C
    C   1.0     0.486888     0.761657     0.629225  Biso 1.000000     C
    C   1.0     0.880437     0.251381     0.740826  Biso 1.000000     C
    C   1.0     0.942355     0.325829     0.742146  Biso 1.000000     C
    C   1.0     0.004014     0.389047     0.814384  Biso 1.000000     C
    C   1.0     0.940519     0.331361     0.670205  Biso 1.000000     C
    C   1.0     0.132886     0.526184     0.739837  Biso 1.000000     C
    C   1.0     0.063645     0.459648     0.742030  Biso 1.000000     C
    C   1.0     0.000676     0.397287     0.670080  Biso 1.000000     C
    C   1.0     0.064146     0.455329     0.814285  Biso 1.000000     C
    C   1.0     0.377884     0.841793     0.940504  Biso 1.000000     C
    C   1.0     0.431703     0.906593     0.014457  Biso 1.000000     C
    C   1.0     0.458286     0.882467     0.077629  Biso 1.000000     C
    C   1.0     0.425161     0.796783     0.066587  Biso 1.000000     C
    C   1.0     0.371799     0.736247    -0.009672  Biso 1.000000     C
    C   1.0     0.602059     0.000000     0.272069  Biso 1.000000     C
    C   1.0     0.627821     0.050887     0.232427  Biso 1.000000     C
    C   1.0     0.637019     0.016398     0.355448  Biso 1.000000     C
    C   1.0     0.583943     0.978082     0.389493  Biso 1.000000     C
    C   1.0     0.619674    -0.006605     0.468784  Biso 1.000000     C
    C   1.0     0.754696     0.081490     0.483004  Biso 1.000000     C
    C   1.0     0.724341     0.069006     0.403932  Biso 1.000000     C
    C   1.0     0.331627     0.032686     0.297579  Biso 1.000000     C
    C   1.0     0.584118     0.305490     0.294980  Biso 1.000000     C
    C   1.0     0.510690     0.243220     0.298507  Biso 1.000000     C
    C   1.0     0.444433     0.183592     0.227481  Biso 1.000000     C
    C   1.0     0.384747     0.117460     0.227884  Biso 1.000000     C
    C   1.0     0.390170     0.109534     0.299316  Biso 1.000000     C
    C   1.0     0.453320     0.171941     0.371180  Biso 1.000000     C
    C   1.0     0.513107     0.238294     0.370802  Biso 1.000000     C
    C   1.0     0.119547     0.748579     0.259198  Biso 1.000000     C
    C   1.0     0.057630     0.674126     0.257876  Biso 1.000000     C
    C   1.0     0.995970     0.610908     0.185638  Biso 1.000000     C
    C   1.0     0.059461     0.668599     0.329818  Biso 1.000000     C
    C   1.0     0.867109     0.473766     0.260188  Biso 1.000000     C
    C   1.0     0.936332     0.540316     0.257996  Biso 1.000000     C
    C   1.0     0.999309     0.602670     0.329943  Biso 1.000000     C
    C   1.0     0.935845     0.544622     0.185737  Biso 1.000000     C
    C   1.0     0.622084     0.158165     0.059521  Biso 1.000000     C
    C   1.0     0.568266     0.093364     0.985567  Biso 1.000000     C
    C   1.0     0.541688     0.117487     0.922394  Biso 1.000000     C
    C   1.0     0.574818     0.203169     0.933434  Biso 1.000000     C
    C   1.0     0.628178     0.263706     0.000000  Biso 1.000000     C
    C   1.0     0.397920    -0.001688     0.727951  Biso 1.000000     C
    C   1.0     0.372158     0.949062     0.767594  Biso 1.000000     C
    C   1.0     0.362962     0.983549     0.644571  Biso 1.000000     C
    C   1.0     0.416038     0.021866     0.610528  Biso 1.000000     C
    C   1.0     0.380309     0.000000     0.531237  Biso 1.000000     C
    C   1.0     0.245284     0.918461     0.517016  Biso 1.000000     C
    C   1.0     0.275638     0.930944     0.596087  Biso 1.000000     C
    C   1.0     0.831645     0.264857     0.296921  Biso 1.000000     C
    C   1.0     0.084049     0.989552     0.294678  Biso 1.000000     C
    C   1.0     0.000000     0.055346     0.298027  Biso 1.000000     C
    C   1.0     0.944394     0.043309     0.226962  Biso 1.000000     C
    C   1.0     0.884747     0.109862     0.227287  Biso 1.000000     C
    C   1.0     0.890121     0.189754     0.298705  Biso 1.000000     C
    C   1.0     0.953257     0.199838     0.370603  Biso 1.000000     C
    C   1.0     0.000000     0.133149     0.370284  Biso 1.000000     C
    C   1.0     0.619981     0.510808     0.259287  Biso 1.000000     C
    C   1.0     0.557970     0.583882     0.257956  Biso 1.000000     C
    C   1.0     0.496698     0.574575     0.185633  Biso 1.000000     C
    C   1.0     0.559186     0.661527     0.329995  Biso 1.000000     C
    C   1.0     0.366977     0.786310     0.260273  Biso 1.000000     C
    C   1.0     0.436299     0.717605     0.258067  Biso 1.000000     C
    C   1.0     0.498820     0.727453     0.330115  Biso 1.000000     C
    C   1.0     0.436453     0.640891     0.185714  Biso 1.000000     C
    C   1.0     0.123149     0.901191     0.060268  Biso 1.000000     C
    C   1.0     0.069350     0.892333     0.986590  Biso 1.000000     C
    C   1.0     0.042028     0.804861     0.923079  Biso 1.000000     C
    C   1.0     0.074329     0.729749     0.933562  Biso 1.000000     C
    C   1.0     0.127725     0.745224     0.000000  Biso 1.000000     C
    C   1.0     0.898385     0.730254     0.728812  Biso 1.000000     C
    C   1.0     0.873007     0.819454     0.769086  Biso 1.000000     C
    C   1.0     0.863371     0.661698     0.645165  Biso 1.000000     C
    C   1.0     0.916082     0.588910     0.610749  Biso 1.000000     C
    C   1.0     0.880358     0.524992     0.531212  Biso 1.000000     C
    C   1.0     0.746164     0.599921     0.517375  Biso 1.000000     C
    C   1.0     0.776537     0.666472     0.596705  Biso 1.000000     C
    N   1.0     0.849322     0.171036     0.927406  Biso 1.000000     N
    N   1.0     0.202994     0.469878     0.515357  Biso 1.000000     N
    N   1.0     0.020151     0.206951     0.150151  Biso 1.000000     N
    N   1.0     0.033837     0.285029     0.218380  Biso 1.000000     N
    N   1.0     0.075134     0.141430     0.154713  Biso 1.000000     N
    N   1.0     0.349635     0.757037     0.927610  Biso 1.000000     N
    N   1.0     0.703478     0.044484     0.515376  Biso 1.000000     N
    N   1.0     0.520578     0.943735     0.151058  Biso 1.000000     N
    N   1.0     0.534008     0.933570     0.218887  Biso 1.000000     N
    N   1.0     0.575974     0.013976     0.156227  Biso 1.000000     N
    N   1.0     0.650339     0.242918     0.072413  Biso 1.000000     N
    N   1.0     0.296504     0.955468     0.484644  Biso 1.000000     N
    N   1.0     0.479397     0.056218     0.848963  Biso 1.000000     N
    N   1.0     0.465968     0.066382     0.781134  Biso 1.000000     N
    N   1.0     0.424002     0.985976     0.843795  Biso 1.000000     N
    N   1.0     0.150660     0.828918     0.072617  Biso 1.000000     N
    N   1.0     0.796986     0.530072     0.484666  Biso 1.000000     N
    N   1.0     0.979831     0.792999     0.849871  Biso 1.000000     N
    N   1.0     0.966143     0.714919     0.781643  Biso 1.000000     N
    N   1.0     0.924846     0.858519     0.845308  Biso 1.000000     N
    O   1.0     0.164783     0.666266     0.636012  Biso 1.000000     O
    O   1.0     0.216757     0.746446     0.772298  Biso 1.000000     O
    O   1.0     0.911035     0.068311     0.775405  Biso 1.000000     O
    O   1.0     0.862233     0.000749     0.638547  Biso 1.000000     O
    O   1.0     0.378777     0.555403     0.808177  Biso 1.000000     O
    O   1.0     0.333615     0.479142     0.671390  Biso 1.000000     O
    O   1.0     0.683938     0.221051     0.806953  Biso 1.000000     O
    O   1.0     0.636538     0.153213     0.670139  Biso 1.000000     O
    O   1.0     0.664135     0.968971     0.635460  Biso 1.000000     O
    O   1.0     0.717472     0.025260     0.771555  Biso 1.000000     O
    O   1.0     0.410476     0.707950     0.775215  Biso 1.000000     O
    O   1.0     0.362711     0.636119     0.638348  Biso 1.000000     O
    O   1.0     0.878599     0.253474     0.808303  Biso 1.000000     O
    O   1.0     0.834767     0.191085     0.671436  Biso 1.000000     O
    O   1.0     0.184199     0.586090     0.807048  Biso 1.000000     O
    O   1.0     0.135957     0.516974     0.670276  Biso 1.000000     O
    O   1.0     0.335861     0.030985     0.364565  Biso 1.000000     O
    O   1.0     0.282523     0.974694     0.228468  Biso 1.000000     O
    O   1.0     0.589518     0.292018     0.224820  Biso 1.000000     O
    O   1.0     0.637291     0.363832     0.361687  Biso 1.000000     O
    O   1.0     0.121395     0.746486     0.191724  Biso 1.000000     O
    O   1.0     0.165213     0.808876     0.328590  Biso 1.000000     O
    O   1.0     0.815792     0.413862     0.192978  Biso 1.000000     O
    O   1.0     0.864020     0.482995     0.329751  Biso 1.000000     O
    O   1.0     0.835216     0.333693     0.364000  Biso 1.000000     O
    O   1.0     0.783212     0.253501     0.227718  Biso 1.000000     O
    O   1.0     0.088952     0.931647     0.224612  Biso 1.000000     O
    O   1.0     0.137758     0.999213     0.361470  Biso 1.000000     O
    O   1.0     0.621224     0.444564     0.191842  Biso 1.000000     O
    O   1.0     0.666354     0.520807     0.328631  Biso 1.000000     O
    O   1.0     0.316042     0.778897     0.193066  Biso 1.000000     O
    O   1.0     0.363454     0.846754     0.329878  Biso 1.000000     O
   Zn   1.0     0.746322     0.073548     0.635515  Biso 1.000000    Zn
   Zn   1.0     0.800381     0.148221     0.808491  Biso 1.000000    Zn
   Zn   1.0     0.246194     0.561210     0.635693  Biso 1.000000    Zn
   Zn   1.0     0.300347     0.660749     0.808502  Biso 1.000000    Zn
   Zn   1.0     0.753798     0.438749     0.364332  Biso 1.000000    Zn
   Zn   1.0     0.699643     0.339211     0.191522  Biso 1.000000    Zn
   Zn   1.0     0.253670     0.926411     0.364509  Biso 1.000000    Zn
   Zn   1.0     0.199612     0.851741     0.191536  Biso 1.000000    Zn
