#======================================================================

# CRYSTAL DATA

#----------------------------------------------------------------------

data_VESTA_phase_1


_pd_phase_name                         MOF
_cell_length_a                         15.37000
_cell_length_b                         20.10400
_cell_length_c                         17.69700
_cell_angle_alpha                      90.00000
_cell_angle_beta                       89.98700
_cell_angle_gamma                      89.99900
_symmetry_space_group_name_H-M         "P 1"
_symmetry_Int_Tables_number            1

loop_
_symmetry_equiv_pos_as_xyz
   "x, y, z"

loop_
   _atom_site_label
   _atom_site_occupancy
   _atom_site_fract_x
   _atom_site_fract_y
   _atom_site_fract_z
   _atom_site_adp_type
   _atom_site_B_iso_or_equiv
   _atom_site_type_symbol
    H   1.0     0.484177     0.018586     0.871781  Biso 1.000000     H
    H   1.0     0.484178     0.518592     0.871781  Biso 1.000000     H
    H   1.0     0.984178     0.018586     0.871781  Biso 1.000000     H
    H   1.0     0.984179     0.518592     0.871781  Biso 1.000000     H
    H   1.0     0.216486     0.021494     0.823529  Biso 1.000000     H
    H   1.0     0.216487     0.521501     0.823529  Biso 1.000000     H
    H   1.0     0.716487     0.021494     0.823529  Biso 1.000000     H
    H   1.0     0.716488     0.521501     0.823529  Biso 1.000000     H
    H   1.0     0.266284     0.481143     0.372084  Biso 1.000000     H
    H   1.0     0.266285     0.981149     0.372084  Biso 1.000000     H
    H   1.0     0.766285     0.481143     0.372084  Biso 1.000000     H
    H   1.0     0.766286     0.981149     0.372084  Biso 1.000000     H
    H   1.0     0.033954     0.478745     0.323511  Biso 1.000000     H
    H   1.0     0.033955     0.978752     0.323512  Biso 1.000000     H
    H   1.0     0.533955     0.478745     0.323512  Biso 1.000000     H
    H   1.0     0.533956     0.978752     0.323512  Biso 1.000000     H
    H   1.0     0.015813     0.268590     0.128213  Biso 1.000000     H
    H   1.0     0.015813     0.768597     0.128213  Biso 1.000000     H
    H   1.0     0.515813     0.268590     0.128213  Biso 1.000000     H
    H   1.0     0.515814     0.768597     0.128213  Biso 1.000000     H
    H   1.0     0.283502     0.271496     0.176473  Biso 1.000000     H
    H   1.0     0.283503     0.771502     0.176473  Biso 1.000000     H
    H   1.0     0.783502     0.271496     0.176473  Biso 1.000000     H
    H   1.0     0.783503     0.771502     0.176473  Biso 1.000000     H
    H   1.0     0.233713     0.231138     0.627911  Biso 1.000000     H
    H   1.0     0.233714     0.731144     0.627911  Biso 1.000000     H
    H   1.0     0.733713     0.231138     0.627911  Biso 1.000000     H
    H   1.0     0.733714     0.731144     0.627911  Biso 1.000000     H
    H   1.0     0.466044     0.228743     0.676491  Biso 1.000000     H
    H   1.0     0.466045     0.728750     0.676491  Biso 1.000000     H
    H   1.0     0.966045     0.228744     0.676491  Biso 1.000000     H
    H   1.0     0.966046     0.728750     0.676491  Biso 1.000000     H
    H   1.0     0.015817     0.481421     0.128217  Biso 1.000000     H
    H   1.0     0.015817     0.981427     0.128217  Biso 1.000000     H
    H   1.0     0.515817     0.481421     0.128217  Biso 1.000000     H
    H   1.0     0.515818     0.981427     0.128217  Biso 1.000000     H
    H   1.0     0.283507     0.478511     0.176470  Biso 1.000000     H
    H   1.0     0.283508     0.978518     0.176470  Biso 1.000000     H
    H   1.0     0.783508     0.478511     0.176470  Biso 1.000000     H
    H   1.0     0.783509     0.978518     0.176470  Biso 1.000000     H
    H   1.0     0.233709     0.018864     0.627915  Biso 1.000000     H
    H   1.0     0.233710     0.518870     0.627915  Biso 1.000000     H
    H   1.0     0.733710     0.018864     0.627915  Biso 1.000000     H
    H   1.0     0.733711     0.518870     0.627915  Biso 1.000000     H
    H   1.0     0.466039     0.021260     0.676486  Biso 1.000000     H
    H   1.0     0.466040     0.521267     0.676487  Biso 1.000000     H
    H   1.0     0.966040     0.021260     0.676487  Biso 1.000000     H
    H   1.0     0.966041     0.521267     0.676487  Biso 1.000000     H
    H   1.0     0.484181     0.231416     0.871786  Biso 1.000000     H
    H   1.0     0.484182     0.731422     0.871785  Biso 1.000000     H
    H   1.0     0.984182     0.231416     0.871785  Biso 1.000000     H
    H   1.0     0.984182     0.731422     0.871785  Biso 1.000000     H
    H   1.0     0.216492     0.228510     0.823525  Biso 1.000000     H
    H   1.0     0.216493     0.728516     0.823525  Biso 1.000000     H
    H   1.0     0.716493     0.228510     0.823526  Biso 1.000000     H
    H   1.0     0.716494     0.728516     0.823525  Biso 1.000000     H
    H   1.0     0.266281     0.268868     0.372087  Biso 1.000000     H
    H   1.0     0.266282     0.768875     0.372087  Biso 1.000000     H
    H   1.0     0.766281     0.268869     0.372087  Biso 1.000000     H
    H   1.0     0.766282     0.768875     0.372087  Biso 1.000000     H
    H   1.0     0.033949     0.271262     0.323508  Biso 1.000000     H
    H   1.0     0.033950     0.771269     0.323508  Biso 1.000000     H
    H   1.0     0.533950     0.271263     0.323507  Biso 1.000000     H
    H   1.0     0.533951     0.771269     0.323508  Biso 1.000000     H
    H   1.0     0.270048     0.375006     0.922375  Biso 1.000000     H
    H   1.0     0.270049     0.875012     0.922375  Biso 1.000000     H
    H   1.0     0.770048     0.375006     0.922375  Biso 1.000000     H
    H   1.0     0.770049     0.875012     0.922375  Biso 1.000000     H
    H   1.0     0.000377     0.375004     0.962307  Biso 1.000000     H
    H   1.0     0.000378     0.875010     0.962307  Biso 1.000000     H
    H   1.0     0.500378     0.375004     0.962307  Biso 1.000000     H
    H   1.0     0.500379     0.875010     0.962307  Biso 1.000000     H
    H   1.0     0.479843     0.125001     0.422112  Biso 1.000000     H
    H   1.0     0.479844     0.625007     0.422112  Biso 1.000000     H
    H   1.0     0.979844     0.125001     0.422112  Biso 1.000000     H
    H   1.0     0.979845     0.625007     0.422112  Biso 1.000000     H
    H   1.0     0.249350     0.125003     0.462666  Biso 1.000000     H
    H   1.0     0.249351     0.625009     0.462666  Biso 1.000000     H
    H   1.0     0.749351     0.125003     0.462666  Biso 1.000000     H
    H   1.0     0.749352     0.625009     0.462666  Biso 1.000000     H
    H   1.0     0.229946     0.125000     0.077624  Biso 1.000000     H
    H   1.0     0.229947     0.625006     0.077624  Biso 1.000000     H
    H   1.0     0.729947     0.125000     0.077624  Biso 1.000000     H
    H   1.0     0.729947     0.625006     0.077624  Biso 1.000000     H
    H   1.0     0.499616     0.125003     0.037692  Biso 1.000000     H
    H   1.0     0.499617     0.625009     0.037692  Biso 1.000000     H
    H   1.0     0.999617     0.125003     0.037692  Biso 1.000000     H
    H   1.0     0.999618     0.625009     0.037692  Biso 1.000000     H
    H   1.0     0.020150     0.375005     0.577886  Biso 1.000000     H
    H   1.0     0.020151     0.875011     0.577886  Biso 1.000000     H
    H   1.0     0.520151     0.375005     0.577886  Biso 1.000000     H
    H   1.0     0.520152     0.875011     0.577886  Biso 1.000000     H
    H   1.0     0.250643     0.375004     0.537332  Biso 1.000000     H
    H   1.0     0.250644     0.875010     0.537332  Biso 1.000000     H
    H   1.0     0.750644     0.375004     0.537332  Biso 1.000000     H
    H   1.0     0.750645     0.875010     0.537332  Biso 1.000000     H
    C   1.0     0.420197     0.005581     0.850416  Biso 1.000000     C
    C   1.0     0.420198     0.505587     0.850416  Biso 1.000000     C
    C   1.0     0.920198     0.005581     0.850416  Biso 1.000000     C
    C   1.0     0.920199     0.505587     0.850416  Biso 1.000000     C
    C   1.0     0.284425     0.007055     0.824770  Biso 1.000000     C
    C   1.0     0.284426     0.507061     0.824770  Biso 1.000000     C
    C   1.0     0.784426     0.007055     0.824770  Biso 1.000000     C
    C   1.0     0.784427     0.507061     0.824770  Biso 1.000000     C
    C   1.0     0.330193     0.494244     0.350612  Biso 1.000000     C
    C   1.0     0.330194     0.994250     0.350611  Biso 1.000000     C
    C   1.0     0.830194     0.494244     0.350612  Biso 1.000000     C
    C   1.0     0.830194     0.994250     0.350612  Biso 1.000000     C
    C   1.0     0.465961     0.493024     0.324833  Biso 1.000000     C
    C   1.0     0.465961     0.993030     0.324833  Biso 1.000000     C
    C   1.0     0.965961     0.493024     0.324833  Biso 1.000000     C
    C   1.0     0.965962     0.993030     0.324833  Biso 1.000000     C
    C   1.0     0.079792     0.255585     0.149581  Biso 1.000000     C
    C   1.0     0.079793     0.755591     0.149581  Biso 1.000000     C
    C   1.0     0.579793     0.255585     0.149581  Biso 1.000000     C
    C   1.0     0.579794     0.755591     0.149581  Biso 1.000000     C
    C   1.0     0.215563     0.257057     0.175228  Biso 1.000000     C
    C   1.0     0.215564     0.757063     0.175228  Biso 1.000000     C
    C   1.0     0.715564     0.257057     0.175228  Biso 1.000000     C
    C   1.0     0.715565     0.757063     0.175228  Biso 1.000000     C
    C   1.0     0.169805     0.244239     0.649386  Biso 1.000000     C
    C   1.0     0.169806     0.744245     0.649386  Biso 1.000000     C
    C   1.0     0.669805     0.244239     0.649386  Biso 1.000000     C
    C   1.0     0.669806     0.744245     0.649386  Biso 1.000000     C
    C   1.0     0.034037     0.243022     0.675165  Biso 1.000000     C
    C   1.0     0.034038     0.743028     0.675165  Biso 1.000000     C
    C   1.0     0.534038     0.243022     0.675165  Biso 1.000000     C
    C   1.0     0.534039     0.743028     0.675165  Biso 1.000000     C
    C   1.0     0.079797     0.494426     0.149582  Biso 1.000000     C
    C   1.0     0.079797     0.994432     0.149583  Biso 1.000000     C
    C   1.0     0.579797     0.494425     0.149582  Biso 1.000000     C
    C   1.0     0.579798     0.994432     0.149582  Biso 1.000000     C
    C   1.0     0.215568     0.492951     0.175229  Biso 1.000000     C
    C   1.0     0.215569     0.992957     0.175228  Biso 1.000000     C
    C   1.0     0.715569     0.492951     0.175229  Biso 1.000000     C
    C   1.0     0.715570     0.992957     0.175229  Biso 1.000000     C
    C   1.0     0.169801     0.005763     0.649387  Biso 1.000000     C
    C   1.0     0.169802     0.505769     0.649387  Biso 1.000000     C
    C   1.0     0.669801     0.005763     0.649387  Biso 1.000000     C
    C   1.0     0.669802     0.505769     0.649387  Biso 1.000000     C
    C   1.0     0.034033     0.006982     0.675165  Biso 1.000000     C
    C   1.0     0.034034     0.506988     0.675165  Biso 1.000000     C
    C   1.0     0.534034     0.006982     0.675165  Biso 1.000000     C
    C   1.0     0.534034     0.506988     0.675165  Biso 1.000000     C
    C   1.0     0.420202     0.244421     0.850418  Biso 1.000000     C
    C   1.0     0.420203     0.744428     0.850418  Biso 1.000000     C
    C   1.0     0.920202     0.244421     0.850418  Biso 1.000000     C
    C   1.0     0.920203     0.744428     0.850418  Biso 1.000000     C
    C   1.0     0.284430     0.242949     0.824770  Biso 1.000000     C
    C   1.0     0.284431     0.742955     0.824770  Biso 1.000000     C
    C   1.0     0.784431     0.242949     0.824770  Biso 1.000000     C
    C   1.0     0.784432     0.742955     0.824770  Biso 1.000000     C
    C   1.0     0.330189     0.255767     0.350613  Biso 1.000000     C
    C   1.0     0.330190     0.755773     0.350613  Biso 1.000000     C
    C   1.0     0.830189     0.255767     0.350613  Biso 1.000000     C
    C   1.0     0.830190     0.755773     0.350613  Biso 1.000000     C
    C   1.0     0.465956     0.256984     0.324833  Biso 1.000000     C
    C   1.0     0.465957     0.756990     0.324833  Biso 1.000000     C
    C   1.0     0.965957     0.256984     0.324833  Biso 1.000000     C
    C   1.0     0.965958     0.756990     0.324833  Biso 1.000000     C
    C   1.0     0.200296     0.375006     0.913296  Biso 1.000000     C
    C   1.0     0.200297     0.875012     0.913296  Biso 1.000000     C
    C   1.0     0.700296     0.375006     0.913296  Biso 1.000000     C
    C   1.0     0.700297     0.875012     0.913296  Biso 1.000000     C
    C   1.0     0.063340     0.375004     0.934354  Biso 1.000000     C
    C   1.0     0.063341     0.875010     0.934354  Biso 1.000000     C
    C   1.0     0.563340     0.375004     0.934354  Biso 1.000000     C
    C   1.0     0.563341     0.875010     0.934354  Biso 1.000000     C
    C   1.0     0.049629     0.125000     0.413201  Biso 1.000000     C
    C   1.0     0.049630     0.625006     0.413201  Biso 1.000000     C
    C   1.0     0.549629     0.125000     0.413201  Biso 1.000000     C
    C   1.0     0.549630     0.625007     0.413201  Biso 1.000000     C
    C   1.0     0.186487     0.125002     0.434566  Biso 1.000000     C
    C   1.0     0.186488     0.625009     0.434566  Biso 1.000000     C
    C   1.0     0.686487     0.125002     0.434566  Biso 1.000000     C
    C   1.0     0.686488     0.625009     0.434566  Biso 1.000000     C
    C   1.0     0.299698     0.125000     0.086703  Biso 1.000000     C
    C   1.0     0.299699     0.625006     0.086703  Biso 1.000000     C
    C   1.0     0.799698     0.125000     0.086703  Biso 1.000000     C
    C   1.0     0.799699     0.625006     0.086703  Biso 1.000000     C
    C   1.0     0.436654     0.125002     0.065644  Biso 1.000000     C
    C   1.0     0.436655     0.625008     0.065644  Biso 1.000000     C
    C   1.0     0.936654     0.125002     0.065644  Biso 1.000000     C
    C   1.0     0.936655     0.625008     0.065644  Biso 1.000000     C
    C   1.0     0.450365     0.375006     0.586797  Biso 1.000000     C
    C   1.0     0.450365     0.875012     0.586797  Biso 1.000000     C
    C   1.0     0.950365     0.375006     0.586797  Biso 1.000000     C
    C   1.0     0.950366     0.875012     0.586797  Biso 1.000000     C
    C   1.0     0.313507     0.375004     0.565433  Biso 1.000000     C
    C   1.0     0.313508     0.875010     0.565433  Biso 1.000000     C
    C   1.0     0.813507     0.375004     0.565433  Biso 1.000000     C
    C   1.0     0.813508     0.875010     0.565433  Biso 1.000000     C
    N   1.0     0.316668     0.453091     0.791580  Biso 1.000000     N
    N   1.0     0.316669     0.953098     0.791580  Biso 1.000000     N
    N   1.0     0.816669     0.453091     0.791580  Biso 1.000000     N
    N   1.0     0.816670     0.953098     0.791580  Biso 1.000000     N
    N   1.0     0.346673     0.041783     0.862475  Biso 1.000000     N
    N   1.0     0.346674     0.541789     0.862475  Biso 1.000000     N
    N   1.0     0.846674     0.041783     0.862476  Biso 1.000000     N
    N   1.0     0.846675     0.541789     0.862476  Biso 1.000000     N
    N   1.0     0.404319     0.451969     0.808178  Biso 1.000000     N
    N   1.0     0.404320     0.951975     0.808178  Biso 1.000000     N
    N   1.0     0.904320     0.451969     0.808178  Biso 1.000000     N
    N   1.0     0.904321     0.951975     0.808178  Biso 1.000000     N
    N   1.0     0.433486     0.046902     0.291655  Biso 1.000000     N
    N   1.0     0.433487     0.546908     0.291655  Biso 1.000000     N
    N   1.0     0.933487     0.046902     0.291655  Biso 1.000000     N
    N   1.0     0.933488     0.546908     0.291655  Biso 1.000000     N
    N   1.0     0.403869     0.458201     0.362618  Biso 1.000000     N
    N   1.0     0.403870     0.958207     0.362618  Biso 1.000000     N
    N   1.0     0.903870     0.458201     0.362618  Biso 1.000000     N
    N   1.0     0.903871     0.958208     0.362618  Biso 1.000000     N
    N   1.0     0.345865     0.047880     0.308333  Biso 1.000000     N
    N   1.0     0.345866     0.547886     0.308333  Biso 1.000000     N
    N   1.0     0.845865     0.047880     0.308333  Biso 1.000000     N
    N   1.0     0.845866     0.547886     0.308333  Biso 1.000000     N
    N   1.0     0.183321     0.203088     0.208419  Biso 1.000000     N
    N   1.0     0.183322     0.703094     0.208419  Biso 1.000000     N
    N   1.0     0.683322     0.203088     0.208419  Biso 1.000000     N
    N   1.0     0.683323     0.703094     0.208419  Biso 1.000000     N
    N   1.0     0.153315     0.291786     0.137523  Biso 1.000000     N
    N   1.0     0.153316     0.791793     0.137523  Biso 1.000000     N
    N   1.0     0.653316     0.291786     0.137523  Biso 1.000000     N
    N   1.0     0.653317     0.791793     0.137523  Biso 1.000000     N
    N   1.0     0.095671     0.201966     0.191819  Biso 1.000000     N
    N   1.0     0.095672     0.701973     0.191819  Biso 1.000000     N
    N   1.0     0.595672     0.201966     0.191819  Biso 1.000000     N
    N   1.0     0.595673     0.701973     0.191819  Biso 1.000000     N
    N   1.0     0.066511     0.296905     0.708345  Biso 1.000000     N
    N   1.0     0.066512     0.796911     0.708345  Biso 1.000000     N
    N   1.0     0.566512     0.296905     0.708345  Biso 1.000000     N
    N   1.0     0.566513     0.796911     0.708345  Biso 1.000000     N
    N   1.0     0.096129     0.208198     0.637381  Biso 1.000000     N
    N   1.0     0.096130     0.708204     0.637381  Biso 1.000000     N
    N   1.0     0.596129     0.208198     0.637382  Biso 1.000000     N
    N   1.0     0.596130     0.708204     0.637381  Biso 1.000000     N
    N   1.0     0.154132     0.297882     0.691664  Biso 1.000000     N
    N   1.0     0.154133     0.797888     0.691664  Biso 1.000000     N
    N   1.0     0.654133     0.297882     0.691664  Biso 1.000000     N
    N   1.0     0.654133     0.797888     0.691664  Biso 1.000000     N
    N   1.0     0.183325     0.046915     0.208419  Biso 1.000000     N
    N   1.0     0.183326     0.546921     0.208419  Biso 1.000000     N
    N   1.0     0.683326     0.046915     0.208419  Biso 1.000000     N
    N   1.0     0.683327     0.546921     0.208419  Biso 1.000000     N
    N   1.0     0.153320     0.458223     0.137523  Biso 1.000000     N
    N   1.0     0.153321     0.958229     0.137523  Biso 1.000000     N
    N   1.0     0.653321     0.458223     0.137523  Biso 1.000000     N
    N   1.0     0.653322     0.958229     0.137523  Biso 1.000000     N
    N   1.0     0.095675     0.048037     0.191821  Biso 1.000000     N
    N   1.0     0.095675     0.548043     0.191821  Biso 1.000000     N
    N   1.0     0.595675     0.048037     0.191821  Biso 1.000000     N
    N   1.0     0.595676     0.548043     0.191821  Biso 1.000000     N
    N   1.0     0.066507     0.453104     0.708344  Biso 1.000000     N
    N   1.0     0.066508     0.953110     0.708344  Biso 1.000000     N
    N   1.0     0.566508     0.453104     0.708344  Biso 1.000000     N
    N   1.0     0.566509     0.953110     0.708344  Biso 1.000000     N
    N   1.0     0.096124     0.041805     0.637381  Biso 1.000000     N
    N   1.0     0.096125     0.541811     0.637381  Biso 1.000000     N
    N   1.0     0.596125     0.041805     0.637381  Biso 1.000000     N
    N   1.0     0.596126     0.541811     0.637381  Biso 1.000000     N
    N   1.0     0.154129     0.452127     0.691665  Biso 1.000000     N
    N   1.0     0.154130     0.952133     0.691665  Biso 1.000000     N
    N   1.0     0.654129     0.452127     0.691665  Biso 1.000000     N
    N   1.0     0.654130     0.952133     0.691665  Biso 1.000000     N
    N   1.0     0.316672     0.296918     0.791579  Biso 1.000000     N
    N   1.0     0.316673     0.796924     0.791579  Biso 1.000000     N
    N   1.0     0.816673     0.296918     0.791579  Biso 1.000000     N
    N   1.0     0.816674     0.796924     0.791579  Biso 1.000000     N
    N   1.0     0.346678     0.208220     0.862476  Biso 1.000000     N
    N   1.0     0.346679     0.708226     0.862476  Biso 1.000000     N
    N   1.0     0.846679     0.208220     0.862476  Biso 1.000000     N
    N   1.0     0.846680     0.708226     0.862476  Biso 1.000000     N
    N   1.0     0.404322     0.298040     0.808180  Biso 1.000000     N
    N   1.0     0.404323     0.798046     0.808179  Biso 1.000000     N
    N   1.0     0.904323     0.298040     0.808179  Biso 1.000000     N
    N   1.0     0.904324     0.798046     0.808179  Biso 1.000000     N
    N   1.0     0.433483     0.203101     0.291653  Biso 1.000000     N
    N   1.0     0.433484     0.703107     0.291654  Biso 1.000000     N
    N   1.0     0.933483     0.203101     0.291654  Biso 1.000000     N
    N   1.0     0.933484     0.703107     0.291654  Biso 1.000000     N
    N   1.0     0.403865     0.291808     0.362617  Biso 1.000000     N
    N   1.0     0.403866     0.791815     0.362617  Biso 1.000000     N
    N   1.0     0.903865     0.291808     0.362617  Biso 1.000000     N
    N   1.0     0.903866     0.791815     0.362617  Biso 1.000000     N
    N   1.0     0.345862     0.202124     0.308334  Biso 1.000000     N
    N   1.0     0.345863     0.702131     0.308334  Biso 1.000000     N
    N   1.0     0.845862     0.202124     0.308334  Biso 1.000000     N
    N   1.0     0.845863     0.702131     0.308334  Biso 1.000000     N
    N   1.0     0.162044     0.375005     0.846006  Biso 1.000000     N
    N   1.0     0.162045     0.875011     0.846006  Biso 1.000000     N
    N   1.0     0.662045     0.375005     0.846006  Biso 1.000000     N
    N   1.0     0.662045     0.875011     0.846006  Biso 1.000000     N
    N   1.0     0.073651     0.375004     0.859457  Biso 1.000000     N
    N   1.0     0.073652     0.875011     0.859457  Biso 1.000000     N
    N   1.0     0.573651     0.375005     0.859457  Biso 1.000000     N
    N   1.0     0.573652     0.875011     0.859457  Biso 1.000000     N
    N   1.0     0.141471     0.375005     0.970693  Biso 1.000000     N
    N   1.0     0.141472     0.875011     0.970693  Biso 1.000000     N
    N   1.0     0.641472     0.375005     0.970693  Biso 1.000000     N
    N   1.0     0.641472     0.875011     0.970693  Biso 1.000000     N
    N   1.0     0.088089     0.125001     0.345993  Biso 1.000000     N
    N   1.0     0.088089     0.625007     0.345993  Biso 1.000000     N
    N   1.0     0.588089     0.125001     0.345993  Biso 1.000000     N
    N   1.0     0.588090     0.625008     0.345993  Biso 1.000000     N
    N   1.0     0.176460     0.125002     0.359627  Biso 1.000000     N
    N   1.0     0.176461     0.625008     0.359627  Biso 1.000000     N
    N   1.0     0.676460     0.125002     0.359627  Biso 1.000000     N
    N   1.0     0.676461     0.625008     0.359627  Biso 1.000000     N
    N   1.0     0.108219     0.125002     0.470752  Biso 1.000000     N
    N   1.0     0.108220     0.625008     0.470752  Biso 1.000000     N
    N   1.0     0.608220     0.125002     0.470752  Biso 1.000000     N
    N   1.0     0.608221     0.625008     0.470752  Biso 1.000000     N
    N   1.0     0.337950     0.125001     0.153992  Biso 1.000000     N
    N   1.0     0.337951     0.625007     0.153992  Biso 1.000000     N
    N   1.0     0.837950     0.125001     0.153992  Biso 1.000000     N
    N   1.0     0.837951     0.625007     0.153992  Biso 1.000000     N
    N   1.0     0.426343     0.125002     0.140541  Biso 1.000000     N
    N   1.0     0.426344     0.625008     0.140541  Biso 1.000000     N
    N   1.0     0.926343     0.125002     0.140541  Biso 1.000000     N
    N   1.0     0.926344     0.625008     0.140541  Biso 1.000000     N
    N   1.0     0.358523     0.125001     0.029305  Biso 1.000000     N
    N   1.0     0.358524     0.625007     0.029305  Biso 1.000000     N
    N   1.0     0.858523     0.125001     0.029305  Biso 1.000000     N
    N   1.0     0.858524     0.625007     0.029305  Biso 1.000000     N
    N   1.0     0.411905     0.375005     0.654005  Biso 1.000000     N
    N   1.0     0.411906     0.875011     0.654005  Biso 1.000000     N
    N   1.0     0.911906     0.375005     0.654005  Biso 1.000000     N
    N   1.0     0.911907     0.875011     0.654005  Biso 1.000000     N
    N   1.0     0.323534     0.375004     0.640371  Biso 1.000000     N
    N   1.0     0.323535     0.875011     0.640371  Biso 1.000000     N
    N   1.0     0.823534     0.375004     0.640371  Biso 1.000000     N
    N   1.0     0.823535     0.875010     0.640371  Biso 1.000000     N
    N   1.0     0.391774     0.375004     0.529246  Biso 1.000000     N
    N   1.0     0.391775     0.875011     0.529246  Biso 1.000000     N
    N   1.0     0.891775     0.375005     0.529246  Biso 1.000000     N
    N   1.0     0.891776     0.875011     0.529246  Biso 1.000000     N
   Cl   1.0     0.166429     0.125007     0.926984  Biso 1.000000    Cl
   Cl   1.0     0.166430     0.625013     0.926984  Biso 1.000000    Cl
   Cl   1.0     0.666429     0.125007     0.926984  Biso 1.000000    Cl
   Cl   1.0     0.666430     0.625013     0.926984  Biso 1.000000    Cl
   Cl   1.0     0.084494     0.375000     0.427069  Biso 1.000000    Cl
   Cl   1.0     0.084495     0.875006     0.427069  Biso 1.000000    Cl
   Cl   1.0     0.584495     0.375000     0.427069  Biso 1.000000    Cl
   Cl   1.0     0.584496     0.875006     0.427069  Biso 1.000000    Cl
   Cl   1.0     0.333565     0.374999     0.073015  Biso 1.000000    Cl
   Cl   1.0     0.333566     0.875006     0.073015  Biso 1.000000    Cl
   Cl   1.0     0.833566     0.374999     0.073015  Biso 1.000000    Cl
   Cl   1.0     0.833566     0.875006     0.073015  Biso 1.000000    Cl
   Cl   1.0     0.415499     0.125006     0.572929  Biso 1.000000    Cl
   Cl   1.0     0.415500     0.625013     0.572929  Biso 1.000000    Cl
   Cl   1.0     0.915500     0.125006     0.572929  Biso 1.000000    Cl
   Cl   1.0     0.915501     0.625013     0.572929  Biso 1.000000    Cl
   Zn   1.0     0.237750     0.375004     0.737203  Biso 1.000000    Zn
   Zn   1.0     0.237751     0.875011     0.737203  Biso 1.000000    Zn
   Zn   1.0     0.737751     0.375004     0.737203  Biso 1.000000    Zn
   Zn   1.0     0.737752     0.875011     0.737203  Biso 1.000000    Zn
   Zn   1.0     0.011466     0.125002     0.237259  Biso 1.000000    Zn
   Zn   1.0     0.011467     0.625008     0.237259  Biso 1.000000    Zn
   Zn   1.0     0.511466     0.125002     0.237259  Biso 1.000000    Zn
   Zn   1.0     0.511467     0.625008     0.237259  Biso 1.000000    Zn
   Zn   1.0     0.262243     0.125002     0.262795  Biso 1.000000    Zn
   Zn   1.0     0.262244     0.625008     0.262795  Biso 1.000000    Zn
   Zn   1.0     0.762244     0.125002     0.262795  Biso 1.000000    Zn
   Zn   1.0     0.762245     0.625008     0.262795  Biso 1.000000    Zn
   Zn   1.0     0.488528     0.375004     0.762739  Biso 1.000000    Zn
   Zn   1.0     0.488529     0.875011     0.762739  Biso 1.000000    Zn
   Zn   1.0     0.988529     0.375004     0.762739  Biso 1.000000    Zn
   Zn   1.0     0.988529     0.875011     0.762739  Biso 1.000000    Zn
   Zn   1.0     0.314938     0.125002     0.921597  Biso 1.000000    Zn
   Zn   1.0     0.314939     0.625008     0.921597  Biso 1.000000    Zn
   Zn   1.0     0.814939     0.125002     0.921597  Biso 1.000000    Zn
   Zn   1.0     0.814940     0.625008     0.921597  Biso 1.000000    Zn
   Zn   1.0     0.436190     0.375004     0.421695  Biso 1.000000    Zn
   Zn   1.0     0.436191     0.875010     0.421695  Biso 1.000000    Zn
   Zn   1.0     0.936190     0.375004     0.421695  Biso 1.000000    Zn
   Zn   1.0     0.936191     0.875010     0.421695  Biso 1.000000    Zn
   Zn   1.0     0.185056     0.375004     0.078401  Biso 1.000000    Zn
   Zn   1.0     0.185056     0.875010     0.078401  Biso 1.000000    Zn
   Zn   1.0     0.685056     0.375004     0.078401  Biso 1.000000    Zn
   Zn   1.0     0.685057     0.875010     0.078401  Biso 1.000000    Zn
   Zn   1.0     0.063804     0.125002     0.578304  Biso 1.000000    Zn
   Zn   1.0     0.063805     0.625008     0.578304  Biso 1.000000    Zn
   Zn   1.0     0.563804     0.125002     0.578304  Biso 1.000000    Zn
   Zn   1.0     0.563805     0.625008     0.578304  Biso 1.000000    Zn
