#======================================================================

# CRYSTAL DATA

#----------------------------------------------------------------------

data_VESTA_phase_1


_pd_phase_name                         MOF
_cell_length_a                         18.79600
_cell_length_b                         14.86900
_cell_length_c                         21.03200
_cell_angle_alpha                      110.31300
_cell_angle_beta                       95.57800
_cell_angle_gamma                      90.19500
_symmetry_space_group_name_H-M         "P 1"
_symmetry_Int_Tables_number            1

loop_
_symmetry_equiv_pos_as_xyz
   "x, y, z"

loop_
   _atom_site_label
   _atom_site_occupancy
   _atom_site_fract_x
   _atom_site_fract_y
   _atom_site_fract_z
   _atom_site_adp_type
   _atom_site_B_iso_or_equiv
   _atom_site_type_symbol
    H   1.0     0.268877     0.176099     0.558871  Biso 1.000000     H
    H   1.0     0.768892     0.176090     0.558885  Biso 1.000000     H
    H   1.0     0.252511     0.893261     0.568635  Biso 1.000000     H
    H   1.0     0.752523     0.893252     0.568649  Biso 1.000000     H
    H   1.0     0.069204     0.244445     0.879873  Biso 1.000000     H
    H   1.0     0.569215     0.244470     0.879878  Biso 1.000000     H
    H   1.0     0.257584     0.323275     0.023252  Biso 1.000000     H
    H   1.0     0.757597     0.323263     0.023257  Biso 1.000000     H
    H   1.0     0.451046     0.150300     0.703272  Biso 1.000000     H
    H   1.0     0.951061     0.150296     0.703279  Biso 1.000000     H
    H   1.0     0.398361     0.363062     0.883960  Biso 1.000000     H
    H   1.0     0.898378     0.363062     0.883967  Biso 1.000000     H
    H   1.0     0.010761     0.433675     0.835324  Biso 1.000000     H
    H   1.0     0.510772     0.433675     0.835325  Biso 1.000000     H
    H   1.0     0.063301     0.371922     0.720906  Biso 1.000000     H
    H   1.0     0.563316     0.371923     0.720908  Biso 1.000000     H
    H   1.0     0.103625     0.270797     0.734744  Biso 1.000000     H
    H   1.0     0.603636     0.270795     0.734746  Biso 1.000000     H
    H   1.0     0.433109     0.301290     0.632327  Biso 1.000000     H
    H   1.0     0.933112     0.301278     0.632329  Biso 1.000000     H
    H   1.0     0.406759     0.216291     0.509491  Biso 1.000000     H
    H   1.0     0.906761     0.216280     0.509494  Biso 1.000000     H
    H   1.0     0.107141     0.074824     0.506475  Biso 1.000000     H
    H   1.0     0.607151     0.074817     0.506477  Biso 1.000000     H
    H   1.0     0.133688     0.161425     0.629971  Biso 1.000000     H
    H   1.0     0.633698     0.161418     0.629973  Biso 1.000000     H
    H   1.0     0.376573     0.077098     0.422965  Biso 1.000000     H
    H   1.0     0.876581     0.077089     0.422964  Biso 1.000000     H
    H   1.0     0.351394     0.009200     0.298251  Biso 1.000000     H
    H   1.0     0.851404     0.009191     0.298249  Biso 1.000000     H
    H   1.0     0.077050     0.026847     0.278934  Biso 1.000000     H
    H   1.0     0.577063     0.026840     0.278933  Biso 1.000000     H
    H   1.0     0.102083     0.095172     0.403255  Biso 1.000000     H
    H   1.0     0.602097     0.095164     0.403253  Biso 1.000000     H
    H   1.0     0.401763     0.924316     0.186256  Biso 1.000000     H
    H   1.0     0.901770     0.924318     0.186256  Biso 1.000000     H
    H   1.0     0.493668     0.945614     0.178373  Biso 1.000000     H
    H   1.0     0.993677     0.945606     0.178373  Biso 1.000000     H
    H   1.0     0.472033     0.181407     0.260267  Biso 1.000000     H
    H   1.0     0.972035     0.181407     0.260273  Biso 1.000000     H
    H   1.0     0.359404     0.159987     0.071785  Biso 1.000000     H
    H   1.0     0.859446     0.159986     0.071774  Biso 1.000000     H
    H   1.0     0.366882     0.977237     0.080687  Biso 1.000000     H
    H   1.0     0.866919     0.977233     0.080674  Biso 1.000000     H
    H   1.0     0.480421     0.617524     0.440725  Biso 1.000000     H
    H   1.0     0.980437     0.617524     0.440727  Biso 1.000000     H
    H   1.0     0.498172     0.325722     0.431813  Biso 1.000000     H
    H   1.0     0.998178     0.325721     0.431814  Biso 1.000000     H
    H   1.0     0.180882     0.370061     0.119601  Biso 1.000000     H
    H   1.0     0.680895     0.370053     0.119606  Biso 1.000000     H
    H   1.0     0.492513     0.298405     0.976101  Biso 1.000000     H
    H   1.0     0.992522     0.298373     0.976096  Biso 1.000000     H
    H   1.0     0.299483     0.451148     0.296754  Biso 1.000000     H
    H   1.0     0.799507     0.451152     0.296764  Biso 1.000000     H
    H   1.0     0.351884     0.483867     0.115038  Biso 1.000000     H
    H   1.0     0.851889     0.483862     0.115040  Biso 1.000000     H
    H   1.0     0.239519     0.601773     0.163078  Biso 1.000000     H
    H   1.0     0.739525     0.601768     0.163086  Biso 1.000000     H
    H   1.0     0.187342     0.653769     0.277923  Biso 1.000000     H
    H   1.0     0.687357     0.653767     0.277936  Biso 1.000000     H
    H   1.0     0.146703     0.538956     0.264305  Biso 1.000000     H
    H   1.0     0.646721     0.538953     0.264318  Biso 1.000000     H
    H   1.0     0.317478     0.670724     0.366741  Biso 1.000000     H
    H   1.0     0.817500     0.670713     0.366751  Biso 1.000000     H
    H   1.0     0.343645     0.706871     0.489593  Biso 1.000000     H
    H   1.0     0.843668     0.706862     0.489603  Biso 1.000000     H
    H   1.0     0.142349     0.568880     0.492826  Biso 1.000000     H
    H   1.0     0.642365     0.568890     0.492841  Biso 1.000000     H
    H   1.0     0.116017     0.533635     0.369283  Biso 1.000000     H
    H   1.0     0.616033     0.533642     0.369298  Biso 1.000000     H
    H   1.0     0.373372     0.652769     0.575924  Biso 1.000000     H
    H   1.0     0.873392     0.652766     0.575933  Biso 1.000000     H
    H   1.0     0.398885     0.707135     0.700585  Biso 1.000000     H
    H   1.0     0.898910     0.707131     0.700593  Biso 1.000000     H
    H   1.0     0.173443     0.743536     0.720532  Biso 1.000000     H
    H   1.0     0.673470     0.743539     0.720547  Biso 1.000000     H
    H   1.0     0.148098     0.690185     0.596265  Biso 1.000000     H
    H   1.0     0.648121     0.690190     0.596281  Biso 1.000000     H
    H   1.0     0.349064     0.732284     0.812631  Biso 1.000000     H
    H   1.0     0.849092     0.732277     0.812640  Biso 1.000000     H
    H   1.0     0.257147     0.759963     0.820848  Biso 1.000000     H
    H   1.0     0.757176     0.759962     0.820861  Biso 1.000000     H
    H   1.0     0.277262     0.916868     0.739858  Biso 1.000000     H
    H   1.0     0.777278     0.916872     0.739880  Biso 1.000000     H
    H   1.0     0.391063     0.080452     0.928011  Biso 1.000000     H
    H   1.0     0.891112     0.080441     0.928020  Biso 1.000000     H
    H   1.0     0.384311     0.888473     0.918185  Biso 1.000000     H
    H   1.0     0.884362     0.888459     0.918187  Biso 1.000000     H
    H   1.0     0.231160     0.823896     0.441178  Biso 1.000000     H
    H   1.0     0.731174     0.823887     0.441192  Biso 1.000000     H
    H   1.0     0.247525     0.106736     0.431413  Biso 1.000000     H
    H   1.0     0.747539     0.106728     0.431427  Biso 1.000000     H
    H   1.0     0.430805     0.755591     0.120153  Biso 1.000000     H
    H   1.0     0.930815     0.755619     0.120162  Biso 1.000000     H
    H   1.0     0.242430     0.676748     0.976769  Biso 1.000000     H
    H   1.0     0.742443     0.676736     0.976776  Biso 1.000000     H
    H   1.0     0.049005     0.849668     0.296793  Biso 1.000000     H
    H   1.0     0.549017     0.849668     0.296801  Biso 1.000000     H
    H   1.0     0.101652     0.636964     0.116061  Biso 1.000000     H
    H   1.0     0.601669     0.636970     0.116069  Biso 1.000000     H
    H   1.0     0.489264     0.566330     0.164693  Biso 1.000000     H
    H   1.0     0.989272     0.566326     0.164692  Biso 1.000000     H
    H   1.0     0.436748     0.628041     0.279138  Biso 1.000000     H
    H   1.0     0.936760     0.628041     0.279137  Biso 1.000000     H
    H   1.0     0.396414     0.729161     0.265299  Biso 1.000000     H
    H   1.0     0.896424     0.729160     0.265298  Biso 1.000000     H
    H   1.0     0.066932     0.698680     0.367719  Biso 1.000000     H
    H   1.0     0.566938     0.698674     0.367722  Biso 1.000000     H
    H   1.0     0.093280     0.783681     0.490554  Biso 1.000000     H
    H   1.0     0.593286     0.783677     0.490558  Biso 1.000000     H
    H   1.0     0.392897     0.925159     0.493563  Biso 1.000000     H
    H   1.0     0.892909     0.925153     0.493563  Biso 1.000000     H
    H   1.0     0.366353     0.838555     0.370067  Biso 1.000000     H
    H   1.0     0.866364     0.838549     0.370066  Biso 1.000000     H
    H   1.0     0.123461     0.922884     0.577085  Biso 1.000000     H
    H   1.0     0.623469     0.922879     0.577085  Biso 1.000000     H
    H   1.0     0.148630     0.990803     0.701799  Biso 1.000000     H
    H   1.0     0.648640     0.990796     0.701799  Biso 1.000000     H
    H   1.0     0.422970     0.973138     0.721106  Biso 1.000000     H
    H   1.0     0.922981     0.973129     0.721103  Biso 1.000000     H
    H   1.0     0.397944     0.904797     0.596784  Biso 1.000000     H
    H   1.0     0.897958     0.904786     0.596781  Biso 1.000000     H
    H   1.0     0.098253     0.075692     0.813786  Biso 1.000000     H
    H   1.0     0.598262     0.075692     0.813789  Biso 1.000000     H
    H   1.0     0.006345     0.054398     0.821664  Biso 1.000000     H
    H   1.0     0.506356     0.054390     0.821667  Biso 1.000000     H
    H   1.0     0.028033     0.818595     0.739760  Biso 1.000000     H
    H   1.0     0.528039     0.818593     0.739764  Biso 1.000000     H
    H   1.0     0.140547     0.840039     0.928295  Biso 1.000000     H
    H   1.0     0.640584     0.840032     0.928284  Biso 1.000000     H
    H   1.0     0.133059     0.022794     0.919399  Biso 1.000000     H
    H   1.0     0.633092     0.022786     0.919389  Biso 1.000000     H
    H   1.0     0.019609     0.382469     0.559302  Biso 1.000000     H
    H   1.0     0.519623     0.382470     0.559300  Biso 1.000000     H
    H   1.0     0.001872     0.674272     0.568214  Biso 1.000000     H
    H   1.0     0.501877     0.674273     0.568213  Biso 1.000000     H
    H   1.0     0.319135     0.629966     0.880421  Biso 1.000000     H
    H   1.0     0.819149     0.629961     0.880429  Biso 1.000000     H
    H   1.0     0.007504     0.701725     0.023943  Biso 1.000000     H
    H   1.0     0.507513     0.701683     0.023932  Biso 1.000000     H
    H   1.0     0.200525     0.548839     0.703287  Biso 1.000000     H
    H   1.0     0.700550     0.548836     0.703293  Biso 1.000000     H
    H   1.0     0.148130     0.516145     0.885013  Biso 1.000000     H
    H   1.0     0.648136     0.516147     0.885015  Biso 1.000000     H
    H   1.0     0.260499     0.398243     0.836981  Biso 1.000000     H
    H   1.0     0.760507     0.398243     0.836992  Biso 1.000000     H
    H   1.0     0.312674     0.346234     0.722132  Biso 1.000000     H
    H   1.0     0.812687     0.346226     0.722145  Biso 1.000000     H
    H   1.0     0.353313     0.461047     0.735752  Biso 1.000000     H
    H   1.0     0.853332     0.461036     0.735766  Biso 1.000000     H
    H   1.0     0.182545     0.329273     0.633302  Biso 1.000000     H
    H   1.0     0.682569     0.329256     0.633311  Biso 1.000000     H
    H   1.0     0.156391     0.293126     0.510448  Biso 1.000000     H
    H   1.0     0.656415     0.293115     0.510458  Biso 1.000000     H
    H   1.0     0.357693     0.431122     0.507236  Biso 1.000000     H
    H   1.0     0.857710     0.431132     0.507253  Biso 1.000000     H
    H   1.0     0.384011     0.466367     0.630780  Biso 1.000000     H
    H   1.0     0.884027     0.466371     0.630797  Biso 1.000000     H
    H   1.0     0.126676     0.347239     0.424116  Biso 1.000000     H
    H   1.0     0.626697     0.347241     0.424129  Biso 1.000000     H
    H   1.0     0.101176     0.292873     0.299453  Biso 1.000000     H
    H   1.0     0.601200     0.292877     0.299465  Biso 1.000000     H
    H   1.0     0.326622     0.256459     0.279530  Biso 1.000000     H
    H   1.0     0.826646     0.256468     0.279546  Biso 1.000000     H
    H   1.0     0.351951     0.309808     0.403798  Biso 1.000000     H
    H   1.0     0.851973     0.309815     0.403814  Biso 1.000000     H
    H   1.0     0.151007     0.267711     0.187413  Biso 1.000000     H
    H   1.0     0.651031     0.267713     0.187425  Biso 1.000000     H
    H   1.0     0.242926     0.240035     0.179204  Biso 1.000000     H
    H   1.0     0.742952     0.240040     0.179219  Biso 1.000000     H
    H   1.0     0.222771     0.083147     0.260216  Biso 1.000000     H
    H   1.0     0.722788     0.083156     0.260237  Biso 1.000000     H
    H   1.0     0.109030     0.919534     0.072039  Biso 1.000000     H
    H   1.0     0.609067     0.919533     0.072053  Biso 1.000000     H
    H   1.0     0.115799     0.111507     0.081846  Biso 1.000000     H
    H   1.0     0.615838     0.111505     0.081855  Biso 1.000000     H
    C   1.0     0.273263     0.081285     0.648148  Biso 1.000000     C
    C   1.0     0.773274     0.081282     0.648161  Biso 1.000000     C
    C   1.0     0.261768     0.039144     0.571633  Biso 1.000000     C
    C   1.0     0.761782     0.039135     0.571646  Biso 1.000000     C
    C   1.0     0.260811     0.099039     0.532692  Biso 1.000000     C
    C   1.0     0.760824     0.099030     0.532706  Biso 1.000000     C
    C   1.0     0.251093     0.939631     0.538211  Biso 1.000000     C
    C   1.0     0.751106     0.939622     0.538224  Biso 1.000000     C
    C   1.0     0.215031     0.242640     0.888619  Biso 1.000000     C
    C   1.0     0.715041     0.242641     0.888623  Biso 1.000000     C
    C   1.0     0.168291     0.278514     0.945623  Biso 1.000000     C
    C   1.0     0.668302     0.278521     0.945628  Biso 1.000000     C
    C   1.0     0.093414     0.272162     0.932475  Biso 1.000000     C
    C   1.0     0.593426     0.272180     0.932480  Biso 1.000000     C
    C   1.0     0.199464     0.316208     0.013464  Biso 1.000000     C
    C   1.0     0.699476     0.316206     0.013469  Biso 1.000000     C
    C   1.0     0.451384     0.216577     0.746409  Biso 1.000000     C
    C   1.0     0.951399     0.216574     0.746416  Biso 1.000000     C
    C   1.0     0.426213     0.329371     0.839372  Biso 1.000000     C
    C   1.0     0.926229     0.329370     0.839378  Biso 1.000000     C
    C   1.0     0.481558     0.364970     0.815796  Biso 1.000000     C
    C   1.0     0.981570     0.364970     0.815798  Biso 1.000000     C
    C   1.0     0.054466     0.296008     0.714613  Biso 1.000000     C
    C   1.0     0.554478     0.296008     0.714613  Biso 1.000000     C
    C   1.0     0.035569     0.237926     0.640084  Biso 1.000000     C
    C   1.0     0.535583     0.237928     0.640084  Biso 1.000000     C
    C   1.0     0.471228     0.250906     0.605185  Biso 1.000000     C
    C   1.0     0.971233     0.250898     0.605186  Biso 1.000000     C
    C   1.0     0.456184     0.202223     0.535511  Biso 1.000000     C
    C   1.0     0.956188     0.202216     0.535512  Biso 1.000000     C
    C   1.0     0.005323     0.139485     0.497954  Biso 1.000000     C
    C   1.0     0.505337     0.139487     0.497954  Biso 1.000000     C
    C   1.0     0.068927     0.125114     0.533551  Biso 1.000000     C
    C   1.0     0.568939     0.125111     0.533552  Biso 1.000000     C
    C   1.0     0.083729     0.173411     0.603585  Biso 1.000000     C
    C   1.0     0.583741     0.173408     0.603585  Biso 1.000000     C
    C   1.0     0.490973     0.093511     0.423055  Biso 1.000000     C
    C   1.0     0.990980     0.093510     0.423055  Biso 1.000000     C
    C   1.0     0.420667     0.067980     0.391592  Biso 1.000000     C
    C   1.0     0.920675     0.067975     0.391592  Biso 1.000000     C
    C   1.0     0.406448     0.029075     0.320992  Biso 1.000000     C
    C   1.0     0.906457     0.029070     0.320991  Biso 1.000000     C
    C   1.0     0.462284     0.014548     0.279302  Biso 1.000000     C
    C   1.0     0.962293     0.014546     0.279302  Biso 1.000000     C
    C   1.0     0.032605     0.037989     0.310214  Biso 1.000000     C
    C   1.0     0.532618     0.037986     0.310213  Biso 1.000000     C
    C   1.0     0.046858     0.076440     0.380970  Biso 1.000000     C
    C   1.0     0.546871     0.076436     0.380970  Biso 1.000000     C
    C   1.0     0.446347     0.978228     0.202880  Biso 1.000000     C
    C   1.0     0.946357     0.978226     0.202880  Biso 1.000000     C
    C   1.0     0.443621     0.151578     0.209764  Biso 1.000000     C
    C   1.0     0.943633     0.151577     0.209766  Biso 1.000000     C
    C   1.0     0.384470     0.137355     0.112115  Biso 1.000000     C
    C   1.0     0.884503     0.137353     0.112108  Biso 1.000000     C
    C   1.0     0.387898     0.046674     0.115448  Biso 1.000000     C
    C   1.0     0.887929     0.046672     0.115440  Biso 1.000000     C
    C   1.0     0.476730     0.434817     0.351916  Biso 1.000000     C
    C   1.0     0.976742     0.434816     0.351917  Biso 1.000000     C
    C   1.0     0.488246     0.468340     0.428418  Biso 1.000000     C
    C   1.0     0.988256     0.468339     0.428420  Biso 1.000000     C
    C   1.0     0.488815     0.566544     0.467114  Biso 1.000000     C
    C   1.0     0.988831     0.566543     0.467115  Biso 1.000000     C
    C   1.0     0.499309     0.402038     0.462054  Biso 1.000000     C
    C   1.0     0.999320     0.402037     0.462055  Biso 1.000000     C
    C   1.0     0.035089     0.358590     0.111120  Biso 1.000000     C
    C   1.0     0.535102     0.358601     0.111125  Biso 1.000000     C
    C   1.0     0.081789     0.335128     0.053872  Biso 1.000000     C
    C   1.0     0.581802     0.335140     0.053877  Biso 1.000000     C
    C   1.0     0.156668     0.342671     0.066995  Biso 1.000000     C
    C   1.0     0.656681     0.342671     0.067000  Biso 1.000000     C
    C   1.0     0.050619     0.301709     0.985959  Biso 1.000000     C
    C   1.0     0.550631     0.301732     0.985965  Biso 1.000000     C
    C   1.0     0.299073     0.474293     0.253264  Biso 1.000000     C
    C   1.0     0.799092     0.474295     0.253273  Biso 1.000000     C
    C   1.0     0.324089     0.494426     0.159753  Biso 1.000000     C
    C   1.0     0.824099     0.494424     0.159758  Biso 1.000000     C
    C   1.0     0.268759     0.552926     0.183025  Biso 1.000000     C
    C   1.0     0.768769     0.552923     0.183033  Biso 1.000000     C
    C   1.0     0.195938     0.584202     0.284425  Biso 1.000000     C
    C   1.0     0.695955     0.584200     0.284437  Biso 1.000000     C
    C   1.0     0.214622     0.599834     0.359037  Biso 1.000000     C
    C   1.0     0.714640     0.599832     0.359049  Biso 1.000000     C
    C   1.0     0.279128     0.647167     0.393920  Biso 1.000000     C
    C   1.0     0.779148     0.647160     0.393931  Biso 1.000000     C
    C   1.0     0.294065     0.667212     0.463621  Biso 1.000000     C
    C   1.0     0.794086     0.667207     0.463632  Biso 1.000000     C
    C   1.0     0.244657     0.641592     0.501255  Biso 1.000000     C
    C   1.0     0.744677     0.641593     0.501267  Biso 1.000000     C
    C   1.0     0.180826     0.592343     0.465702  Biso 1.000000     C
    C   1.0     0.680843     0.592348     0.465716  Biso 1.000000     C
    C   1.0     0.166135     0.571530     0.395632  Biso 1.000000     C
    C   1.0     0.666152     0.571534     0.395646  Biso 1.000000     C
    C   1.0     0.259098     0.669114     0.576140  Biso 1.000000     C
    C   1.0     0.759120     0.669116     0.576152  Biso 1.000000     C
    C   1.0     0.329418     0.674440     0.607430  Biso 1.000000     C
    C   1.0     0.829440     0.674439     0.607440  Biso 1.000000     C
    C   1.0     0.343815     0.704711     0.678006  Biso 1.000000     C
    C   1.0     0.843839     0.704709     0.678015  Biso 1.000000     C
    C   1.0     0.288134     0.730973     0.719850  Biso 1.000000     C
    C   1.0     0.788160     0.730972     0.719862  Biso 1.000000     C
    C   1.0     0.217769     0.724082     0.689115  Biso 1.000000     C
    C   1.0     0.717794     0.724085     0.689129  Biso 1.000000     C
    C   1.0     0.203341     0.693286     0.618382  Biso 1.000000     C
    C   1.0     0.703364     0.693289     0.618396  Biso 1.000000     C
    C   1.0     0.304269     0.769404     0.796253  Biso 1.000000     C
    C   1.0     0.804298     0.769401     0.796265  Biso 1.000000     C
    C   1.0     0.306078     0.936568     0.790173  Biso 1.000000     C
    C   1.0     0.806103     0.936568     0.790191  Biso 1.000000     C
    C   1.0     0.365866     0.018177     0.887608  Biso 1.000000     C
    C   1.0     0.865908     0.018169     0.887619  Biso 1.000000     C
    C   1.0     0.362822     0.924005     0.883831  Biso 1.000000     C
    C   1.0     0.862865     0.923995     0.883839  Biso 1.000000     C
    C   1.0     0.226759     0.918733     0.351897  Biso 1.000000     C
    C   1.0     0.726772     0.918730     0.351910  Biso 1.000000     C
    C   1.0     0.238265     0.960853     0.428414  Biso 1.000000     C
    C   1.0     0.738277     0.960845     0.428427  Biso 1.000000     C
    C   1.0     0.239226     0.900957     0.467355  Biso 1.000000     C
    C   1.0     0.739240     0.900948     0.467368  Biso 1.000000     C
    C   1.0     0.248943     0.060365     0.461837  Biso 1.000000     C
    C   1.0     0.748958     0.060357     0.461851  Biso 1.000000     C
    C   1.0     0.284977     0.757387     0.111398  Biso 1.000000     C
    C   1.0     0.784986     0.757389     0.111404  Biso 1.000000     C
    C   1.0     0.331721     0.721513     0.054398  Biso 1.000000     C
    C   1.0     0.831732     0.721522     0.054406  Biso 1.000000     C
    C   1.0     0.406597     0.727886     0.067549  Biso 1.000000     C
    C   1.0     0.906608     0.727907     0.067558  Biso 1.000000     C
    C   1.0     0.300550     0.683829     0.986556  Biso 1.000000     C
    C   1.0     0.800563     0.683827     0.986564  Biso 1.000000     C
    C   1.0     0.048658     0.783404     0.253644  Biso 1.000000     C
    C   1.0     0.548671     0.783405     0.253651  Biso 1.000000     C
    C   1.0     0.073809     0.670640     0.160657  Biso 1.000000     C
    C   1.0     0.573824     0.670644     0.160664  Biso 1.000000     C
    C   1.0     0.018469     0.635028     0.184232  Biso 1.000000     C
    C   1.0     0.518482     0.635031     0.184236  Biso 1.000000     C
    C   1.0     0.445576     0.703957     0.285433  Biso 1.000000     C
    C   1.0     0.945587     0.703956     0.285431  Biso 1.000000     C
    C   1.0     0.464467     0.762040     0.359961  Biso 1.000000     C
    C   1.0     0.964480     0.762040     0.359959  Biso 1.000000     C
    C   1.0     0.028813     0.749064     0.394860  Biso 1.000000     C
    C   1.0     0.528819     0.749062     0.394863  Biso 1.000000     C
    C   1.0     0.043856     0.797749     0.464533  Biso 1.000000     C
    C   1.0     0.543863     0.797747     0.464536  Biso 1.000000     C
    C   1.0     0.494709     0.860485     0.502091  Biso 1.000000     C
    C   1.0     0.994722     0.860483     0.502089  Biso 1.000000     C
    C   1.0     0.431109     0.874863     0.466490  Biso 1.000000     C
    C   1.0     0.931121     0.874859     0.466489  Biso 1.000000     C
    C   1.0     0.416309     0.826563     0.396457  Biso 1.000000     C
    C   1.0     0.916321     0.826560     0.396455  Biso 1.000000     C
    C   1.0     0.009061     0.906460     0.576987  Biso 1.000000     C
    C   1.0     0.509069     0.906462     0.576989  Biso 1.000000     C
    C   1.0     0.079365     0.932001     0.608454  Biso 1.000000     C
    C   1.0     0.579374     0.931999     0.608455  Biso 1.000000     C
    C   1.0     0.093578     0.970917     0.679055  Biso 1.000000     C
    C   1.0     0.593587     0.970914     0.679056  Biso 1.000000     C
    C   1.0     0.037739     0.985445     0.720741  Biso 1.000000     C
    C   1.0     0.537749     0.985445     0.720743  Biso 1.000000     C
    C   1.0     0.467417     0.961994     0.689828  Biso 1.000000     C
    C   1.0     0.967429     0.961988     0.689826  Biso 1.000000     C
    C   1.0     0.453168     0.923535     0.619071  Biso 1.000000     C
    C   1.0     0.953181     0.923528     0.619069  Biso 1.000000     C
    C   1.0     0.053668     0.021780     0.797163  Biso 1.000000     C
    C   1.0     0.553680     0.021777     0.797165  Biso 1.000000     C
    C   1.0     0.056415     0.848432     0.790277  Biso 1.000000     C
    C   1.0     0.556427     0.848429     0.790277  Biso 1.000000     C
    C   1.0     0.115505     0.862668     0.887954  Biso 1.000000     C
    C   1.0     0.615534     0.862661     0.887947  Biso 1.000000     C
    C   1.0     0.112070     0.953350     0.884624  Biso 1.000000     C
    C   1.0     0.612098     0.953343     0.884617  Biso 1.000000     C
    C   1.0     0.023294     0.565177     0.648109  Biso 1.000000     C
    C   1.0     0.523305     0.565179     0.648108  Biso 1.000000     C
    C   1.0     0.011790     0.531654     0.571608  Biso 1.000000     C
    C   1.0     0.511798     0.531655     0.571606  Biso 1.000000     C
    C   1.0     0.011216     0.433449     0.532913  Biso 1.000000     C
    C   1.0     0.511231     0.433451     0.532911  Biso 1.000000     C
    C   1.0     0.000729     0.597956     0.537972  Biso 1.000000     C
    C   1.0     0.500738     0.597957     0.537971  Biso 1.000000     C
    C   1.0     0.464927     0.641452     0.888905  Biso 1.000000     C
    C   1.0     0.964941     0.641475     0.888915  Biso 1.000000     C
    C   1.0     0.418226     0.664923     0.946153  Biso 1.000000     C
    C   1.0     0.918239     0.664943     0.946162  Biso 1.000000     C
    C   1.0     0.343347     0.657355     0.933027  Biso 1.000000     C
    C   1.0     0.843360     0.657361     0.933035  Biso 1.000000     C
    C   1.0     0.449395     0.698332     0.014066  Biso 1.000000     C
    C   1.0     0.949407     0.698364     0.014076  Biso 1.000000     C
    C   1.0     0.200937     0.525700     0.746780  Biso 1.000000     C
    C   1.0     0.700956     0.525698     0.746786  Biso 1.000000     C
    C   1.0     0.175923     0.505580     0.840296  Biso 1.000000     C
    C   1.0     0.675933     0.505581     0.840300  Biso 1.000000     C
    C   1.0     0.231256     0.447083     0.817029  Biso 1.000000     C
    C   1.0     0.731268     0.447084     0.817038  Biso 1.000000     C
    C   1.0     0.304079     0.415800     0.715630  Biso 1.000000     C
    C   1.0     0.804097     0.415793     0.715643  Biso 1.000000     C
    C   1.0     0.285402     0.400167     0.641016  Biso 1.000000     C
    C   1.0     0.785422     0.400161     0.641029  Biso 1.000000     C
    C   1.0     0.220899     0.352833     0.606127  Biso 1.000000     C
    C   1.0     0.720921     0.352822     0.606138  Biso 1.000000     C
    C   1.0     0.205969     0.332787     0.536425  Biso 1.000000     C
    C   1.0     0.705991     0.332780     0.536436  Biso 1.000000     C
    C   1.0     0.255383     0.358409     0.498797  Biso 1.000000     C
    C   1.0     0.755403     0.358410     0.498811  Biso 1.000000     C
    C   1.0     0.319212     0.407659     0.534356  Biso 1.000000     C
    C   1.0     0.819230     0.407664     0.534371  Biso 1.000000     C
    C   1.0     0.333894     0.428473     0.604427  Biso 1.000000     C
    C   1.0     0.833912     0.428474     0.604442  Biso 1.000000     C
    C   1.0     0.240949     0.330886     0.423912  Biso 1.000000     C
    C   1.0     0.740971     0.330890     0.423926  Biso 1.000000     C
    C   1.0     0.170633     0.325566     0.392615  Biso 1.000000     C
    C   1.0     0.670654     0.325569     0.392628  Biso 1.000000     C
    C   1.0     0.156244     0.295295     0.322039  Biso 1.000000     C
    C   1.0     0.656267     0.295300     0.322052  Biso 1.000000     C
    C   1.0     0.211929     0.269030     0.280200  Biso 1.000000     C
    C   1.0     0.711953     0.269036     0.280214  Biso 1.000000     C
    C   1.0     0.282291     0.275914     0.310941  Biso 1.000000     C
    C   1.0     0.782315     0.275921     0.310956  Biso 1.000000     C
    C   1.0     0.296711     0.306710     0.381675  Biso 1.000000     C
    C   1.0     0.796734     0.306717     0.381690  Biso 1.000000     C
    C   1.0     0.195800     0.230595     0.203796  Biso 1.000000     C
    C   1.0     0.695826     0.230599     0.203810  Biso 1.000000     C
    C   1.0     0.193972     0.063441     0.209893  Biso 1.000000     C
    C   1.0     0.693995     0.063447     0.209912  Biso 1.000000     C
    C   1.0     0.134216     0.981816     0.112444  Biso 1.000000     C
    C   1.0     0.634248     0.981818     0.112458  Biso 1.000000     C
    C   1.0     0.137269     0.075984     0.116211  Biso 1.000000     C
    C   1.0     0.637303     0.075984     0.116224  Biso 1.000000     C
    N   1.0     0.407791     0.236602     0.795634  Biso 1.000000     N
    N   1.0     0.907808     0.236599     0.795642  Biso 1.000000     N
    N   1.0     0.496904     0.292716     0.756819  Biso 1.000000     N
    N   1.0     0.996916     0.292714     0.756821  Biso 1.000000     N
    N   1.0     0.419244     0.202406     0.171402  Biso 1.000000     N
    N   1.0     0.919265     0.202405     0.171401  Biso 1.000000     N
    N   1.0     0.425626     0.056944     0.177677  Biso 1.000000     N
    N   1.0     0.925643     0.056942     0.177674  Biso 1.000000     N
    N   1.0     0.342609     0.445630     0.204026  Biso 1.000000     N
    N   1.0     0.842624     0.445631     0.204031  Biso 1.000000     N
    N   1.0     0.253504     0.539441     0.242362  Biso 1.000000     N
    N   1.0     0.753520     0.539441     0.242372  Biso 1.000000     N
    N   1.0     0.330440     0.025193     0.828731  Biso 1.000000     N
    N   1.0     0.830470     0.025191     0.828748  Biso 1.000000     N
    N   1.0     0.324684     0.873188     0.821752  Biso 1.000000     N
    N   1.0     0.824716     0.873184     0.821764  Biso 1.000000     N
    N   1.0     0.092241     0.763397     0.204411  Biso 1.000000     N
    N   1.0     0.592256     0.763400     0.204420  Biso 1.000000     N
    N   1.0     0.003136     0.707264     0.243225  Biso 1.000000     N
    N   1.0     0.503148     0.707265     0.243229  Biso 1.000000     N
    N   1.0     0.080773     0.797608     0.828647  Biso 1.000000     N
    N   1.0     0.580793     0.797603     0.828644  Biso 1.000000     N
    N   1.0     0.074382     0.943071     0.822377  Biso 1.000000     N
    N   1.0     0.574399     0.943067     0.822375  Biso 1.000000     N
    N   1.0     0.157399     0.554365     0.796016  Biso 1.000000     N
    N   1.0     0.657415     0.554365     0.796019  Biso 1.000000     N
    N   1.0     0.246511     0.460561     0.757689  Biso 1.000000     N
    N   1.0     0.746528     0.460560     0.757699  Biso 1.000000     N
    N   1.0     0.169616     0.974814     0.171335  Biso 1.000000     N
    N   1.0     0.669642     0.974819     0.171353  Biso 1.000000     N
    N   1.0     0.175387     0.126811     0.178300  Biso 1.000000     N
    N   1.0     0.675415     0.126814     0.178315  Biso 1.000000     N
    O   1.0     0.284289     0.023630     0.681032  Biso 1.000000     O
    O   1.0     0.784300     0.023631     0.681049  Biso 1.000000     O
    O   1.0     0.271713     0.171807     0.677659  Biso 1.000000     O
    O   1.0     0.771727     0.171804     0.677667  Biso 1.000000     O
    O   1.0     0.280970     0.269339     0.899883  Biso 1.000000     O
    O   1.0     0.780982     0.269339     0.899886  Biso 1.000000     O
    O   1.0     0.187368     0.183857     0.830884  Biso 1.000000     O
    O   1.0     0.687378     0.183854     0.830890  Biso 1.000000     O
    O   1.0     0.465782     0.344796     0.319163  Biso 1.000000     O
    O   1.0     0.965792     0.344795     0.319165  Biso 1.000000     O
    O   1.0     0.478223     0.496257     0.322252  Biso 1.000000     O
    O   1.0     0.978234     0.496256     0.322253  Biso 1.000000     O
    O   1.0     0.469325     0.374025     0.099526  Biso 1.000000     O
    O   1.0     0.969333     0.374003     0.099519  Biso 1.000000     O
    O   1.0     0.062711     0.359157     0.169514  Biso 1.000000     O
    O   1.0     0.562722     0.359154     0.169516  Biso 1.000000     O
    O   1.0     0.215722     0.976402     0.319028  Biso 1.000000     O
    O   1.0     0.715732     0.976403     0.319044  Biso 1.000000     O
    O   1.0     0.228311     0.828213     0.322367  Biso 1.000000     O
    O   1.0     0.728323     0.828210     0.322376  Biso 1.000000     O
    O   1.0     0.219038     0.730687     0.100126  Biso 1.000000     O
    O   1.0     0.719048     0.730688     0.100129  Biso 1.000000     O
    O   1.0     0.312639     0.816159     0.169139  Biso 1.000000     O
    O   1.0     0.812648     0.816158     0.169147  Biso 1.000000     O
    O   1.0     0.034240     0.655199     0.680864  Biso 1.000000     O
    O   1.0     0.534250     0.655201     0.680862  Biso 1.000000     O
    O   1.0     0.021793     0.503737     0.677770  Biso 1.000000     O
    O   1.0     0.521804     0.503738     0.677769  Biso 1.000000     O
    O   1.0     0.030704     0.626112     0.900530  Biso 1.000000     O
    O   1.0     0.530708     0.626062     0.900514  Biso 1.000000     O
    O   1.0     0.437304     0.640859     0.830504  Biso 1.000000     O
    O   1.0     0.937315     0.640854     0.830508  Biso 1.000000     O
   Cd   1.0     0.302891     0.151690     0.789780  Biso 1.000000    Cd
   Cd   1.0     0.802909     0.151686     0.789794  Biso 1.000000    Cd
   Cd   1.0     0.447191     0.367145     0.210409  Biso 1.000000    Cd
   Cd   1.0     0.947205     0.367144     0.210410  Biso 1.000000    Cd
   Cd   1.0     0.197140     0.848307     0.210268  Biso 1.000000    Cd
   Cd   1.0     0.697156     0.848308     0.210282  Biso 1.000000    Cd
   Cd   1.0     0.052831     0.632868     0.789621  Biso 1.000000    Cd
   Cd   1.0     0.552844     0.632862     0.789618  Biso 1.000000    Cd
