#======================================================================

# CRYSTAL DATA

#----------------------------------------------------------------------

data_VESTA_phase_1


_pd_phase_name                         MOF
_cell_length_a                         14.82800
_cell_length_b                         14.81600
_cell_length_c                         16.77500
_cell_angle_alpha                      102.67500
_cell_angle_beta                       102.68400
_cell_angle_gamma                      115.83900
_symmetry_space_group_name_H-M         "P 1"
_symmetry_Int_Tables_number            1

loop_
_symmetry_equiv_pos_as_xyz
   "x, y, z"

loop_
   _atom_site_label
   _atom_site_occupancy
   _atom_site_fract_x
   _atom_site_fract_y
   _atom_site_fract_z
   _atom_site_adp_type
   _atom_site_B_iso_or_equiv
   _atom_site_type_symbol
    H   1.0     0.477326     0.537827     0.834141  Biso 1.000000     H
    H   1.0     0.578789     0.442471     0.843761  Biso 1.000000     H
    H   1.0     0.874399     0.742467     0.923631  Biso 1.000000     H
    H   1.0     0.771003     0.837210     0.913828  Biso 1.000000     H
    H   1.0     0.133671     0.603259     0.915978  Biso 1.000000     H
    H   1.0     0.986465     0.567210     0.975685  Biso 1.000000     H
    H   1.0     0.789128     0.557090     0.739394  Biso 1.000000     H
    H   1.0     0.935615     0.591021     0.679465  Biso 1.000000     H
    H   1.0     0.612386     0.334150     0.040273  Biso 1.000000     H
    H   1.0     0.698000     0.502963     0.011011  Biso 1.000000     H
    H   1.0     0.803900     0.356143     0.829891  Biso 1.000000     H
    H   1.0     0.723286     0.189577     0.864054  Biso 1.000000     H
    H   1.0     0.461596     0.522682     0.665081  Biso 1.000000     H
    H   1.0     0.557274     0.421527     0.655709  Biso 1.000000     H
    H   1.0     0.257893     0.125314     0.575941  Biso 1.000000     H
    H   1.0     0.162820     0.228405     0.585479  Biso 1.000000     H
    H   1.0     0.396556     0.866153     0.583793  Biso 1.000000     H
    H   1.0     0.432849     0.013548     0.524130  Biso 1.000000     H
    H   1.0     0.443551     0.211304     0.760545  Biso 1.000000     H
    H   1.0     0.409290     0.064584     0.820421  Biso 1.000000     H
    H   1.0     0.666378     0.388160     0.459889  Biso 1.000000     H
    H   1.0     0.497585     0.302551     0.488988  Biso 1.000000     H
    H   1.0     0.643826     0.196105     0.670027  Biso 1.000000     H
    H   1.0     0.810313     0.276574     0.635908  Biso 1.000000     H
    H   1.0     0.522671     0.462196     0.165854  Biso 1.000000     H
    H   1.0     0.421209     0.557551     0.156235  Biso 1.000000     H
    H   1.0     0.125598     0.257555     0.076365  Biso 1.000000     H
    H   1.0     0.228994     0.162813     0.086167  Biso 1.000000     H
    H   1.0     0.866327     0.396764     0.084019  Biso 1.000000     H
    H   1.0     0.013533     0.432813     0.024312  Biso 1.000000     H
    H   1.0     0.210870     0.442933     0.260602  Biso 1.000000     H
    H   1.0     0.064382     0.409002     0.320531  Biso 1.000000     H
    H   1.0     0.387612     0.665873     0.959723  Biso 1.000000     H
    H   1.0     0.301997     0.497060     0.988985  Biso 1.000000     H
    H   1.0     0.196097     0.643880     0.170105  Biso 1.000000     H
    H   1.0     0.276711     0.810446     0.135942  Biso 1.000000     H
    H   1.0     0.538401     0.477341     0.334914  Biso 1.000000     H
    H   1.0     0.442723     0.578496     0.344287  Biso 1.000000     H
    H   1.0     0.742104     0.874709     0.424055  Biso 1.000000     H
    H   1.0     0.837177     0.771618     0.414517  Biso 1.000000     H
    H   1.0     0.603443     0.133870     0.416203  Biso 1.000000     H
    H   1.0     0.567148     0.986475     0.475866  Biso 1.000000     H
    H   1.0     0.556446     0.788719     0.239451  Biso 1.000000     H
    H   1.0     0.590708     0.935438     0.179576  Biso 1.000000     H
    H   1.0     0.333620     0.611862     0.540106  Biso 1.000000     H
    H   1.0     0.502412     0.697472     0.511008  Biso 1.000000     H
    H   1.0     0.356171     0.803918     0.329969  Biso 1.000000     H
    H   1.0     0.189685     0.723449     0.364088  Biso 1.000000     H
    C   1.0     0.553182     0.747465     0.867768  Biso 1.000000     C
    C   1.0     0.617388     0.693707     0.874166  Biso 1.000000     C
    C   1.0     0.564426     0.582285     0.854867  Biso 1.000000     C
    C   1.0     0.621292     0.529062     0.860137  Biso 1.000000     C
    C   1.0     0.733739     0.586221     0.885814  Biso 1.000000     C
    C   1.0     0.787305     0.697793     0.904159  Biso 1.000000     C
    C   1.0     0.729621     0.750665     0.898501  Biso 1.000000     C
    C   1.0     0.127739     0.612867     0.755308  Biso 1.000000     C
    C   1.0     0.043181     0.597893     0.793503  Biso 1.000000     C
    C   1.0     0.057698     0.592087     0.877482  Biso 1.000000     C
    C   1.0     0.975760     0.572168     0.910725  Biso 1.000000     C
    C   1.0     0.878320     0.558567     0.860759  Biso 1.000000     C
    C   1.0     0.864781     0.567558     0.777973  Biso 1.000000     C
    C   1.0     0.946443     0.586503     0.744527  Biso 1.000000     C
    C   1.0     0.601829     0.147464     0.965632  Biso 1.000000     C
    C   1.0     0.659873     0.249993     0.952166  Biso 1.000000     C
    C   1.0     0.653776     0.339325     0.993836  Biso 1.000000     C
    C   1.0     0.702027     0.433718     0.977650  Biso 1.000000     C
    C   1.0     0.753734     0.439942     0.916238  Biso 1.000000     C
    C   1.0     0.763284     0.351851     0.876873  Biso 1.000000     C
    C   1.0     0.717712     0.258586     0.895553  Biso 1.000000     C
    C   1.0     0.252049     0.446315     0.631515  Biso 1.000000     C
    C   1.0     0.306008     0.382301     0.625124  Biso 1.000000     C
    C   1.0     0.417345     0.435517     0.644431  Biso 1.000000     C
    C   1.0     0.470747     0.378822     0.639297  Biso 1.000000     C
    C   1.0     0.413854     0.266301     0.613761  Biso 1.000000     C
    C   1.0     0.302353     0.212471     0.595331  Biso 1.000000     C
    C   1.0     0.249304     0.269986     0.600846  Biso 1.000000     C
    C   1.0     0.386813     0.872075     0.744404  Biso 1.000000     C
    C   1.0     0.402069     0.956806     0.706281  Biso 1.000000     C
    C   1.0     0.407868     0.942247     0.622305  Biso 1.000000     C
    C   1.0     0.427931     0.024276     0.589099  Biso 1.000000     C
    C   1.0     0.441697     0.121852     0.639097  Biso 1.000000     C
    C   1.0     0.432864     0.135494     0.721930  Biso 1.000000     C
    C   1.0     0.413738     0.053711     0.755339  Biso 1.000000     C
    C   1.0     0.852655     0.398189     0.534438  Biso 1.000000     C
    C   1.0     0.750189     0.340293     0.547891  Biso 1.000000     C
    C   1.0     0.661071     0.346638     0.506260  Biso 1.000000     C
    C   1.0     0.566698     0.298406     0.522368  Biso 1.000000     C
    C   1.0     0.560321     0.246536     0.583704  Biso 1.000000     C
    C   1.0     0.648235     0.236818     0.623085  Biso 1.000000     C
    C   1.0     0.741454     0.282316     0.604437  Biso 1.000000     C
    C   1.0     0.446815     0.252558     0.132229  Biso 1.000000     C
    C   1.0     0.382609     0.306316     0.125829  Biso 1.000000     C
    C   1.0     0.435571     0.417738     0.145129  Biso 1.000000     C
    C   1.0     0.378705     0.470961     0.139858  Biso 1.000000     C
    C   1.0     0.266258     0.413802     0.114184  Biso 1.000000     C
    C   1.0     0.212692     0.302229     0.095836  Biso 1.000000     C
    C   1.0     0.270377     0.249358     0.101495  Biso 1.000000     C
    C   1.0     0.872258     0.387155     0.244687  Biso 1.000000     C
    C   1.0     0.956816     0.402130     0.206494  Biso 1.000000     C
    C   1.0     0.942300     0.407936     0.122514  Biso 1.000000     C
    C   1.0     0.024237     0.427855     0.089271  Biso 1.000000     C
    C   1.0     0.121677     0.441456     0.139236  Biso 1.000000     C
    C   1.0     0.135216     0.432465     0.222023  Biso 1.000000     C
    C   1.0     0.053554     0.413520     0.255469  Biso 1.000000     C
    C   1.0     0.398168     0.852559     0.034364  Biso 1.000000     C
    C   1.0     0.340124     0.750029     0.047830  Biso 1.000000     C
    C   1.0     0.346222     0.660697     0.006160  Biso 1.000000     C
    C   1.0     0.297970     0.566305     0.022346  Biso 1.000000     C
    C   1.0     0.246263     0.560081     0.083758  Biso 1.000000     C
    C   1.0     0.236713     0.648172     0.123123  Biso 1.000000     C
    C   1.0     0.282286     0.741437     0.104443  Biso 1.000000     C
    C   1.0     0.747949     0.553708     0.368485  Biso 1.000000     C
    C   1.0     0.693989     0.617722     0.374871  Biso 1.000000     C
    C   1.0     0.582652     0.564506     0.355565  Biso 1.000000     C
    C   1.0     0.529250     0.621200     0.360699  Biso 1.000000     C
    C   1.0     0.586144     0.733722     0.386236  Biso 1.000000     C
    C   1.0     0.697644     0.787552     0.404664  Biso 1.000000     C
    C   1.0     0.750693     0.730036     0.399150  Biso 1.000000     C
    C   1.0     0.613177     0.127945     0.255590  Biso 1.000000     C
    C   1.0     0.597931     0.043218     0.293716  Biso 1.000000     C
    C   1.0     0.592129     0.057775     0.377691  Biso 1.000000     C
    C   1.0     0.572069     0.975748     0.410898  Biso 1.000000     C
    C   1.0     0.558295     0.878169     0.360897  Biso 1.000000     C
    C   1.0     0.567136     0.864530     0.278067  Biso 1.000000     C
    C   1.0     0.586259     0.946311     0.244657  Biso 1.000000     C
    C   1.0     0.147343     0.601834     0.465559  Biso 1.000000     C
    C   1.0     0.249808     0.659729     0.452105  Biso 1.000000     C
    C   1.0     0.338927     0.653386     0.493736  Biso 1.000000     C
    C   1.0     0.433299     0.701617     0.477627  Biso 1.000000     C
    C   1.0     0.439677     0.753488     0.416293  Biso 1.000000     C
    C   1.0     0.351762     0.763204     0.376911  Biso 1.000000     C
    C   1.0     0.258544     0.717707     0.395559  Biso 1.000000     C
    N   1.0     0.792430     0.532383     0.893094  Biso 1.000000     N
    N   1.0     0.467893     0.207796     0.606734  Biso 1.000000     N
    N   1.0     0.207567     0.467640     0.106901  Biso 1.000000     N
    N   1.0     0.532105     0.792227     0.393262  Biso 1.000000     N
    O   1.0     0.451206     0.687723     0.842485  Biso 1.000000     O
    O   1.0     0.602722     0.849824     0.889208  Biso 1.000000     O
    O   1.0     0.219790     0.636715     0.805347  Biso 1.000000     O
    O   1.0     0.106084     0.601953     0.674260  Biso 1.000000     O
    O   1.0     0.525812     0.135514     0.994437  Biso 1.000000     O
    O   1.0     0.627819     0.076202     0.944593  Biso 1.000000     O
    O   1.0     0.311546     0.548405     0.656904  Biso 1.000000     O
    O   1.0     0.149755     0.396515     0.609979  Biso 1.000000     O
    O   1.0     0.363004     0.779965     0.694403  Biso 1.000000     O
    O   1.0     0.397448     0.893661     0.825403  Biso 1.000000     O
    O   1.0     0.865008     0.474668     0.506062  Biso 1.000000     O
    O   1.0     0.923519     0.371648     0.555073  Biso 1.000000     O
    O   1.0     0.548791     0.312299     0.157510  Biso 1.000000     O
    O   1.0     0.397275     0.150199     0.110787  Biso 1.000000     O
    O   1.0     0.780207     0.363307     0.194649  Biso 1.000000     O
    O   1.0     0.893913     0.398070     0.325736  Biso 1.000000     O
    O   1.0     0.474185     0.864509     0.005558  Biso 1.000000     O
    O   1.0     0.372178     0.923820     0.055403  Biso 1.000000     O
    O   1.0     0.688452     0.451618     0.343090  Biso 1.000000     O
    O   1.0     0.850243     0.603508     0.390016  Biso 1.000000     O
    O   1.0     0.636995     0.220058     0.305593  Biso 1.000000     O
    O   1.0     0.602551     0.106362     0.174592  Biso 1.000000     O
    O   1.0     0.134989     0.525355     0.493934  Biso 1.000000     O
    O   1.0     0.076478     0.628375     0.444923  Biso 1.000000     O
   Zn   1.0     0.525905     0.924934     0.921199  Biso 1.000000    Zn
   Zn   1.0     0.074630     0.473414     0.578209  Biso 1.000000    Zn
   Zn   1.0     0.474093     0.075088     0.078797  Biso 1.000000    Zn
   Zn   1.0     0.925367     0.526609     0.421787  Biso 1.000000    Zn
   Zn   1.0     0.328889     0.670730     0.749880  Biso 1.000000    Zn
   Zn   1.0     0.671108     0.329292     0.250115  Biso 1.000000    Zn
