#======================================================================

# CRYSTAL DATA

#----------------------------------------------------------------------

data_VESTA_phase_1


_pd_phase_name                         MOF
_cell_length_a                         21.40900
_cell_length_b                         12.77500
_cell_length_c                         12.76000
_cell_angle_alpha                      106.89600
_cell_angle_beta                       94.45000
_cell_angle_gamma                      85.41800
_symmetry_space_group_name_H-M         "P 1"
_symmetry_Int_Tables_number            1

loop_
_symmetry_equiv_pos_as_xyz
   "x, y, z"

loop_
   _atom_site_label
   _atom_site_occupancy
   _atom_site_fract_x
   _atom_site_fract_y
   _atom_site_fract_z
   _atom_site_adp_type
   _atom_site_B_iso_or_equiv
   _atom_site_type_symbol
    H   1.0     0.381149     0.398798     0.653912  Biso 1.000000     H
    H   1.0     0.882053     0.398783     0.653966  Biso 1.000000     H
    H   1.0     0.357757     0.271241     0.471161  Biso 1.000000     H
    H   1.0     0.858502     0.270949     0.471426  Biso 1.000000     H
    H   1.0     0.035105     0.088652     0.499106  Biso 1.000000     H
    H   1.0     0.534505     0.089301     0.498670  Biso 1.000000     H
    H   1.0     0.056270     0.215341     0.684811  Biso 1.000000     H
    H   1.0     0.555433     0.215515     0.684747  Biso 1.000000     H
    H   1.0     0.360095     0.171813     0.302060  Biso 1.000000     H
    H   1.0     0.861291     0.172096     0.301937  Biso 1.000000     H
    H   1.0     0.382448     0.032439     0.235963  Biso 1.000000     H
    H   1.0     0.883170     0.032429     0.236062  Biso 1.000000     H
    H   1.0     0.373953     0.663965     0.813967  Biso 1.000000     H
    H   1.0     0.873992     0.664637     0.813139  Biso 1.000000     H
    H   1.0     0.289981     0.813210     0.814233  Biso 1.000000     H
    H   1.0     0.789991     0.813823     0.813464  Biso 1.000000     H
    H   1.0     0.279583     0.860214     0.161952  Biso 1.000000     H
    H   1.0     0.779111     0.859804     0.160953  Biso 1.000000     H
    H   1.0     0.364167     0.710453     0.147274  Biso 1.000000     H
    H   1.0     0.863715     0.710136     0.146195  Biso 1.000000     H
    H   1.0     0.202245     0.931234     0.918900  Biso 1.000000     H
    H   1.0     0.701907     0.931227     0.918100  Biso 1.000000     H
    H   1.0     0.203366     0.960745     0.064380  Biso 1.000000     H
    H   1.0     0.703063     0.960711     0.063550  Biso 1.000000     H
    H   1.0     0.368398     0.653446     0.398797  Biso 1.000000     H
    H   1.0     0.868695     0.652693     0.398604  Biso 1.000000     H
    H   1.0     0.391968     0.470688     0.271287  Biso 1.000000     H
    H   1.0     0.891686     0.469891     0.270723  Biso 1.000000     H
    H   1.0     0.215505     0.498740     0.089136  Biso 1.000000     H
    H   1.0     0.715142     0.499719     0.089452  Biso 1.000000     H
    H   1.0     0.194340     0.684700     0.215452  Biso 1.000000     H
    H   1.0     0.694597     0.685752     0.216005  Biso 1.000000     H
    H   1.0     0.389533     0.301325     0.172106  Biso 1.000000     H
    H   1.0     0.889273     0.301093     0.170492  Biso 1.000000     H
    H   1.0     0.367838     0.235868     0.032277  Biso 1.000000     H
    H   1.0     0.867041     0.236148     0.030777  Biso 1.000000     H
    H   1.0     0.375523     0.813511     0.665307  Biso 1.000000     H
    H   1.0     0.876184     0.813681     0.664755  Biso 1.000000     H
    H   1.0     0.459537     0.814014     0.814302  Biso 1.000000     H
    H   1.0     0.959979     0.814058     0.814119  Biso 1.000000     H
    H   1.0     0.470066     0.160932     0.859282  Biso 1.000000     H
    H   1.0     0.970574     0.161070     0.859609  Biso 1.000000     H
    H   1.0     0.385399     0.146086     0.709919  Biso 1.000000     H
    H   1.0     0.886154     0.146305     0.709781  Biso 1.000000     H
    H   1.0     0.048005     0.918442     0.930999  Biso 1.000000     H
    H   1.0     0.547805     0.918408     0.930457  Biso 1.000000     H
    H   1.0     0.046682     0.063758     0.960330  Biso 1.000000     H
    H   1.0     0.546453     0.063727     0.959755  Biso 1.000000     H
    H   1.0     0.117937     0.601157     0.346067  Biso 1.000000     H
    H   1.0     0.618937     0.601237     0.346076  Biso 1.000000     H
    H   1.0     0.141517     0.729035     0.528579  Biso 1.000000     H
    H   1.0     0.642293     0.728747     0.528855  Biso 1.000000     H
    H   1.0     0.465546     0.910695     0.501300  Biso 1.000000     H
    H   1.0     0.964934     0.911389     0.500882  Biso 1.000000     H
    H   1.0     0.444623     0.784440     0.315250  Biso 1.000000     H
    H   1.0     0.943788     0.784754     0.315142  Biso 1.000000     H
    H   1.0     0.138730     0.827896     0.698102  Biso 1.000000     H
    H   1.0     0.639983     0.828173     0.697933  Biso 1.000000     H
    H   1.0     0.116840     0.967551     0.763959  Biso 1.000000     H
    H   1.0     0.617650     0.967578     0.764012  Biso 1.000000     H
    H   1.0     0.126055     0.335328     0.186832  Biso 1.000000     H
    H   1.0     0.626065     0.336067     0.186017  Biso 1.000000     H
    H   1.0     0.210076     0.186174     0.186512  Biso 1.000000     H
    H   1.0     0.709973     0.186708     0.185720  Biso 1.000000     H
    H   1.0     0.220940     0.140159     0.839033  Biso 1.000000     H
    H   1.0     0.720398     0.139763     0.838006  Biso 1.000000     H
    H   1.0     0.136311     0.289790     0.853763  Biso 1.000000     H
    H   1.0     0.635887     0.289650     0.852734  Biso 1.000000     H
    H   1.0     0.298119     0.068701     0.081896  Biso 1.000000     H
    H   1.0     0.797750     0.068786     0.081040  Biso 1.000000     H
    H   1.0     0.296978     0.039231     0.936430  Biso 1.000000     H
    H   1.0     0.796615     0.039263     0.935577  Biso 1.000000     H
    H   1.0     0.131333     0.347213     0.601359  Biso 1.000000     H
    H   1.0     0.631590     0.346526     0.601357  Biso 1.000000     H
    H   1.0     0.108316     0.530005     0.729243  Biso 1.000000     H
    H   1.0     0.608079     0.529357     0.728769  Biso 1.000000     H
    H   1.0     0.284878     0.500258     0.910501  Biso 1.000000     H
    H   1.0     0.784553     0.501294     0.910877  Biso 1.000000     H
    H   1.0     0.305447     0.314235     0.783948  Biso 1.000000     H
    H   1.0     0.805736     0.315383     0.784514  Biso 1.000000     H
    H   1.0     0.110744     0.698847     0.829445  Biso 1.000000     H
    H   1.0     0.610499     0.698793     0.827965  Biso 1.000000     H
    H   1.0     0.132978     0.763817     0.969150  Biso 1.000000     H
    H   1.0     0.632172     0.764102     0.967829  Biso 1.000000     H
    H   1.0     0.123864     0.186262     0.335247  Biso 1.000000     H
    H   1.0     0.624489     0.186478     0.334728  Biso 1.000000     H
    H   1.0     0.040007     0.185936     0.185992  Biso 1.000000     H
    H   1.0     0.540498     0.185965     0.185693  Biso 1.000000     H
    H   1.0     0.029475     0.838886     0.140337  Biso 1.000000     H
    H   1.0     0.529952     0.839050     0.140746  Biso 1.000000     H
    H   1.0     0.113871     0.853637     0.290205  Biso 1.000000     H
    H   1.0     0.614578     0.853924     0.290176  Biso 1.000000     H
    H   1.0     0.452231     0.081576     0.069537  Biso 1.000000     H
    H   1.0     0.952027     0.081564     0.069030  Biso 1.000000     H
    H   1.0     0.453576     0.936254     0.040241  Biso 1.000000     H
    H   1.0     0.953336     0.936250     0.039679  Biso 1.000000     H
    C   1.0     0.481082     0.389578     0.794988  Biso 1.000000     C
    C   1.0     0.982151     0.389731     0.794866  Biso 1.000000     C
    C   1.0     0.469848     0.316413     0.681623  Biso 1.000000     C
    C   1.0     0.970771     0.316415     0.681608  Biso 1.000000     C
    C   1.0     0.414833     0.331396     0.619191  Biso 1.000000     C
    C   1.0     0.915691     0.331286     0.619293  Biso 1.000000     C
    C   1.0     0.401987     0.259616     0.515688  Biso 1.000000     C
    C   1.0     0.902754     0.259355     0.515902  Biso 1.000000     C
    C   1.0     0.445390     0.172423     0.471984  Biso 1.000000     C
    C   1.0     0.946078     0.172000     0.472309  Biso 1.000000     C
    C   1.0     0.002012     0.157324     0.532936  Biso 1.000000     C
    C   1.0     0.501324     0.157790     0.532642  Biso 1.000000     C
    C   1.0     0.013601     0.228239     0.636790  Biso 1.000000     C
    C   1.0     0.512796     0.228468     0.636670  Biso 1.000000     C
    C   1.0     0.376824     0.092945     0.316351  Biso 1.000000     C
    C   1.0     0.877538     0.093091     0.316360  Biso 1.000000     C
    C   1.0     0.326810     0.054840     0.375030  Biso 1.000000     C
    C   1.0     0.827029     0.055680     0.374592  Biso 1.000000     C
    C   1.0     0.352150     0.711120     0.889110  Biso 1.000000     C
    C   1.0     0.852067     0.711529     0.888251  Biso 1.000000     C
    C   1.0     0.305623     0.793422     0.890064  Biso 1.000000     C
    C   1.0     0.805521     0.793807     0.889227  Biso 1.000000     C
    C   1.0     0.279312     0.851341     0.989176  Biso 1.000000     C
    C   1.0     0.779048     0.851408     0.988294  Biso 1.000000     C
    C   1.0     0.299801     0.820155     0.083229  Biso 1.000000     C
    C   1.0     0.799421     0.819992     0.082259  Biso 1.000000     C
    C   1.0     0.346587     0.736834     0.076036  Biso 1.000000     C
    C   1.0     0.846218     0.736690     0.075022  Biso 1.000000     C
    C   1.0     0.232958     0.947152     0.994381  Biso 1.000000     C
    C   1.0     0.732647     0.947161     0.993548  Biso 1.000000     C
    C   1.0     0.268397     0.794732     0.389519  Biso 1.000000     C
    C   1.0     0.769242     0.795092     0.389715  Biso 1.000000     C
    C   1.0     0.279771     0.681360     0.316431  Biso 1.000000     C
    C   1.0     0.780136     0.681590     0.316585  Biso 1.000000     C
    C   1.0     0.334809     0.618853     0.331372  Biso 1.000000     C
    C   1.0     0.834963     0.618481     0.331288  Biso 1.000000     C
    C   1.0     0.347750     0.515327     0.259645  Biso 1.000000     C
    C   1.0     0.847585     0.514961     0.259333  Biso 1.000000     C
    C   1.0     0.304502     0.471816     0.172361  Biso 1.000000     C
    C   1.0     0.804174     0.471963     0.172157  Biso 1.000000     C
    C   1.0     0.248563     0.532561     0.157702  Biso 1.000000     C
    C   1.0     0.748361     0.533200     0.157877  Biso 1.000000     C
    C   1.0     0.236984     0.636561     0.228395  Biso 1.000000     C
    C   1.0     0.737116     0.637226     0.228758  Biso 1.000000     C
    C   1.0     0.373287     0.315989     0.093163  Biso 1.000000     C
    C   1.0     0.872686     0.316106     0.091849  Biso 1.000000     C
    C   1.0     0.423706     0.374455     0.055872  Biso 1.000000     C
    C   1.0     0.922870     0.374755     0.054162  Biso 1.000000     C
    C   1.0     0.397333     0.888582     0.711991  Biso 1.000000     C
    C   1.0     0.897994     0.888697     0.711591  Biso 1.000000     C
    C   1.0     0.443907     0.889646     0.794167  Biso 1.000000     C
    C   1.0     0.944431     0.889697     0.793941  Biso 1.000000     C
    C   1.0     0.470331     0.988579     0.851434  Biso 1.000000     C
    C   1.0     0.970797     0.988627     0.851369  Biso 1.000000     C
    C   1.0     0.449786     0.082361     0.819800  Biso 1.000000     C
    C   1.0     0.950370     0.082494     0.819826  Biso 1.000000     C
    C   1.0     0.402947     0.075061     0.736649  Biso 1.000000     C
    C   1.0     0.903675     0.075251     0.736478  Biso 1.000000     C
    C   1.0     0.017187     0.993877     0.947028  Biso 1.000000     C
    C   1.0     0.516991     0.993857     0.946804  Biso 1.000000     C
    C   1.0     0.017874     0.610272     0.205143  Biso 1.000000     C
    C   1.0     0.518967     0.610415     0.204990  Biso 1.000000     C
    C   1.0     0.029254     0.683601     0.318390  Biso 1.000000     C
    C   1.0     0.530219     0.683564     0.318365  Biso 1.000000     C
    C   1.0     0.084317     0.668688     0.380730  Biso 1.000000     C
    C   1.0     0.585245     0.668626     0.380791  Biso 1.000000     C
    C   1.0     0.097268     0.740642     0.484099  Biso 1.000000     C
    C   1.0     0.598065     0.740375     0.484322  Biso 1.000000     C
    C   1.0     0.053943     0.827997     0.527696  Biso 1.000000     C
    C   1.0     0.554658     0.827563     0.528000  Biso 1.000000     C
    C   1.0     0.498724     0.842199     0.467340  Biso 1.000000     C
    C   1.0     0.998023     0.842711     0.467050  Biso 1.000000     C
    C   1.0     0.487270     0.771508     0.363310  Biso 1.000000     C
    C   1.0     0.986439     0.771810     0.363186  Biso 1.000000     C
    C   1.0     0.122474     0.906892     0.683660  Biso 1.000000     C
    C   1.0     0.623257     0.907039     0.683636  Biso 1.000000     C
    C   1.0     0.172983     0.944307     0.625428  Biso 1.000000     C
    C   1.0     0.673273     0.945099     0.624934  Biso 1.000000     C
    C   1.0     0.147965     0.288407     0.111714  Biso 1.000000     C
    C   1.0     0.647878     0.288923     0.110879  Biso 1.000000     C
    C   1.0     0.194536     0.206170     0.110744  Biso 1.000000     C
    C   1.0     0.694353     0.206538     0.109902  Biso 1.000000     C
    C   1.0     0.221010     0.148550     0.011686  Biso 1.000000     C
    C   1.0     0.720664     0.148635     0.010781  Biso 1.000000     C
    C   1.0     0.200626     0.179969     0.917725  Biso 1.000000     C
    C   1.0     0.700192     0.179841     0.916735  Biso 1.000000     C
    C   1.0     0.153803     0.263223     0.924932  Biso 1.000000     C
    C   1.0     0.653458     0.263252     0.923966  Biso 1.000000     C
    C   1.0     0.267394     0.052777     0.006431  Biso 1.000000     C
    C   1.0     0.767024     0.052830     0.005572  Biso 1.000000     C
    C   1.0     0.230793     0.204864     0.610260  Biso 1.000000     C
    C   1.0     0.731624     0.205270     0.610547  Biso 1.000000     C
    C   1.0     0.219896     0.318363     0.683379  Biso 1.000000     C
    C   1.0     0.720262     0.318658     0.683635  Biso 1.000000     C
    C   1.0     0.165058     0.381445     0.668681  Biso 1.000000     C
    C   1.0     0.665212     0.381148     0.668716  Biso 1.000000     C
    C   1.0     0.152426     0.484961     0.740635  Biso 1.000000     C
    C   1.0     0.652290     0.484696     0.740413  Biso 1.000000     C
    C   1.0     0.195839     0.527976     0.827803  Biso 1.000000     C
    C   1.0     0.695541     0.528234     0.827679  Biso 1.000000     C
    C   1.0     0.251658     0.466755     0.842085  Biso 1.000000     C
    C   1.0     0.751481     0.467486     0.842330  Biso 1.000000     C
    C   1.0     0.262917     0.362738     0.771198  Biso 1.000000     C
    C   1.0     0.763077     0.363502     0.771606  Biso 1.000000     C
    C   1.0     0.127332     0.683849     0.908097  Biso 1.000000     C
    C   1.0     0.626740     0.684019     0.906859  Biso 1.000000     C
    C   1.0     0.077151     0.625226     0.945814  Biso 1.000000     C
    C   1.0     0.576322     0.625523     0.944109  Biso 1.000000     C
    C   1.0     0.102038     0.111258     0.288424  Biso 1.000000     C
    C   1.0     0.602683     0.111406     0.288039  Biso 1.000000     C
    C   1.0     0.055579     0.110279     0.206115  Biso 1.000000     C
    C   1.0     0.556119     0.110339     0.205845  Biso 1.000000     C
    C   1.0     0.029221     0.011351     0.148659  Biso 1.000000     C
    C   1.0     0.529703     0.011399     0.148573  Biso 1.000000     C
    C   1.0     0.049669     0.917464     0.180154  Biso 1.000000     C
    C   1.0     0.550228     0.917624     0.180233  Biso 1.000000     C
    C   1.0     0.096358     0.924696     0.263510  Biso 1.000000     C
    C   1.0     0.597054     0.924938     0.263410  Biso 1.000000     C
    C   1.0     0.483040     0.006123     0.053206  Biso 1.000000     C
    C   1.0     0.982839     0.006122     0.052993  Biso 1.000000     C
    N   1.0     0.373397     0.684302     0.980986  Biso 1.000000     N
    N   1.0     0.873244     0.684540     0.980071  Biso 1.000000     N
    N   1.0     0.376039     0.980188     0.684753  Biso 1.000000     N
    N   1.0     0.876805     0.980388     0.684430  Biso 1.000000     N
    N   1.0     0.126818     0.315446     0.019908  Biso 1.000000     N
    N   1.0     0.626615     0.315718     0.018998  Biso 1.000000     N
    N   1.0     0.123229     0.019557     0.315566  Biso 1.000000     N
    N   1.0     0.623960     0.019808     0.315310  Biso 1.000000     N
    O   1.0     0.448222     0.480189     0.823241  Biso 1.000000     O
    O   1.0     0.949313     0.480398     0.823093  Biso 1.000000     O
    O   1.0     0.023714     0.355364     0.856663  Biso 1.000000     O
    O   1.0     0.522579     0.355142     0.856903  Biso 1.000000     O
    O   1.0     0.437702     0.097880     0.370607  Biso 1.000000     O
    O   1.0     0.938295     0.097283     0.371077  Biso 1.000000     O
    O   1.0     0.271016     0.059304     0.333492  Biso 1.000000     O
    O   1.0     0.771301     0.061194     0.333120  Biso 1.000000     O
    O   1.0     0.345696     0.022219     0.456946  Biso 1.000000     O
    O   1.0     0.845543     0.022330     0.456232  Biso 1.000000     O
    O   1.0     0.301260     0.823043     0.480053  Biso 1.000000     O
    O   1.0     0.802136     0.823113     0.480232  Biso 1.000000     O
    O   1.0     0.226787     0.856541     0.355190  Biso 1.000000     O
    O   1.0     0.727965     0.857365     0.355266  Biso 1.000000     O
    O   1.0     0.312410     0.370567     0.097688  Biso 1.000000     O
    O   1.0     0.811820     0.370792     0.097261  Biso 1.000000     O
    O   1.0     0.479504     0.333046     0.061272  Biso 1.000000     O
    O   1.0     0.978664     0.333131     0.058568  Biso 1.000000     O
    O   1.0     0.405091     0.456111     0.022693  Biso 1.000000     O
    O   1.0     0.904001     0.456798     0.021760  Biso 1.000000     O
    O   1.0     0.050741     0.519637     0.176893  Biso 1.000000     O
    O   1.0     0.551799     0.519776     0.176751  Biso 1.000000     O
    O   1.0     0.477453     0.644847     0.143096  Biso 1.000000     O
    O   1.0     0.976273     0.644584     0.143368  Biso 1.000000     O
    O   1.0     0.061714     0.902677     0.628951  Biso 1.000000     O
    O   1.0     0.562382     0.902126     0.629368  Biso 1.000000     O
    O   1.0     0.228714     0.938801     0.666893  Biso 1.000000     O
    O   1.0     0.729053     0.940731     0.666552  Biso 1.000000     O
    O   1.0     0.154461     0.977654     0.543791  Biso 1.000000     O
    O   1.0     0.654411     0.977655     0.542972  Biso 1.000000     O
    O   1.0     0.197895     0.176836     0.519750  Biso 1.000000     O
    O   1.0     0.698760     0.176945     0.520015  Biso 1.000000     O
    O   1.0     0.272081     0.142598     0.644694  Biso 1.000000     O
    O   1.0     0.773244     0.143466     0.644859  Biso 1.000000     O
    O   1.0     0.188193     0.629151     0.902694  Biso 1.000000     O
    O   1.0     0.687634     0.629493     0.902346  Biso 1.000000     O
    O   1.0     0.021364     0.666902     0.941510  Biso 1.000000     O
    O   1.0     0.520518     0.666912     0.938686  Biso 1.000000     O
    O   1.0     0.096016     0.543140     0.978151  Biso 1.000000     O
    O   1.0     0.594939     0.543882     0.977307  Biso 1.000000     O
   Zn   1.0     0.450732     0.577926     0.981424  Biso 1.000000    Zn
   Zn   1.0     0.950323     0.577862     0.981292  Biso 1.000000    Zn
   Zn   1.0     0.298831     0.980940     0.577943  Biso 1.000000    Zn
   Zn   1.0     0.799753     0.981409     0.577901  Biso 1.000000    Zn
   Zn   1.0     0.049752     0.422115     0.018734  Biso 1.000000    Zn
   Zn   1.0     0.549288     0.422084     0.018554  Biso 1.000000    Zn
   Zn   1.0     0.200273     0.018564     0.422115  Biso 1.000000    Zn
   Zn   1.0     0.701200     0.019028     0.422059  Biso 1.000000    Zn
