#======================================================================

# CRYSTAL DATA

#----------------------------------------------------------------------

data_VESTA_phase_1


_pd_phase_name                         MOF
_cell_length_a                         15.61400
_cell_length_b                         17.22800
_cell_length_c                         18.40500
_cell_angle_alpha                      89.94600
_cell_angle_beta                       90.00100
_cell_angle_gamma                      90.00600
_symmetry_space_group_name_H-M         "P 1"
_symmetry_Int_Tables_number            1

loop_
_symmetry_equiv_pos_as_xyz
   "x, y, z"

loop_
   _atom_site_label
   _atom_site_occupancy
   _atom_site_fract_x
   _atom_site_fract_y
   _atom_site_fract_z
   _atom_site_adp_type
   _atom_site_B_iso_or_equiv
   _atom_site_type_symbol
    H   1.0     0.464449     0.801691     0.359146  Biso 1.000000     H
    H   1.0     0.539085     0.724570     0.357393  Biso 1.000000     H
    H   1.0     0.601279     0.943605     0.255313  Biso 1.000000     H
    H   1.0     0.501670     0.932132     0.299044  Biso 1.000000     H
    H   1.0     0.738960     0.951461     0.330118  Biso 1.000000     H
    H   1.0     0.733255     0.944969     0.425954  Biso 1.000000     H
    H   1.0     0.676044     0.732327     0.431433  Biso 1.000000     H
    H   1.0     0.696940     0.815590     0.486128  Biso 1.000000     H
    H   1.0     0.591115     0.927560     0.489153  Biso 1.000000     H
    H   1.0     0.494874     0.922487     0.438971  Biso 1.000000     H
    H   1.0     0.708174     0.832022     0.251557  Biso 1.000000     H
    H   1.0     0.683431     0.741928     0.294068  Biso 1.000000     H
    H   1.0     0.035537     0.198286     0.859334  Biso 1.000000     H
    H   1.0     0.960857     0.275378     0.857427  Biso 1.000000     H
    H   1.0     0.899049     0.056305     0.755655  Biso 1.000000     H
    H   1.0     0.998502     0.067934     0.799588  Biso 1.000000     H
    H   1.0     0.761074     0.048441     0.830362  Biso 1.000000     H
    H   1.0     0.766696     0.054904     0.926187  Biso 1.000000     H
    H   1.0     0.823854     0.267581     0.931350  Biso 1.000000     H
    H   1.0     0.802923     0.184322     0.986187  Biso 1.000000     H
    H   1.0     0.908613     0.072378     0.989491  Biso 1.000000     H
    H   1.0     0.000000     0.077380     0.939492  Biso 1.000000     H
    H   1.0     0.791915     0.167850     0.751636  Biso 1.000000     H
    H   1.0     0.816576     0.257969     0.793989  Biso 1.000000     H
    H   1.0     0.535483     0.301646     0.140669  Biso 1.000000     H
    H   1.0     0.460748     0.224588     0.142538  Biso 1.000000     H
    H   1.0     0.398940     0.443651     0.244302  Biso 1.000000     H
    H   1.0     0.498444     0.432060     0.200453  Biso 1.000000     H
    H   1.0     0.261037     0.451588     0.169454  Biso 1.000000     H
    H   1.0     0.266799     0.445065     0.073642  Biso 1.000000     H
    H   1.0     0.323816     0.232427     0.068523  Biso 1.000000     H
    H   1.0     0.302964     0.315716     0.013709  Biso 1.000000     H
    H   1.0     0.408761     0.427632     0.010469  Biso 1.000000     H
    H   1.0     0.505083     0.422580     0.060552  Biso 1.000000     H
    H   1.0     0.291821     0.332145     0.248255  Biso 1.000000     H
    H   1.0     0.316468     0.242026     0.205907  Biso 1.000000     H
    H   1.0     0.964478     0.698417     0.640827  Biso 1.000000     H
    H   1.0     0.039233     0.775463     0.642590  Biso 1.000000     H
    H   1.0     0.101096     0.556366     0.744682  Biso 1.000000     H
    H   1.0     0.001548     0.567926     0.700869  Biso 1.000000     H
    H   1.0     0.238861     0.548500     0.669947  Biso 1.000000     H
    H   1.0     0.233226     0.554964     0.574106  Biso 1.000000     H
    H   1.0     0.176141     0.767642     0.568588  Biso 1.000000     H
    H   1.0     0.197003     0.684374     0.513899  Biso 1.000000     H
    H   1.0     0.091119     0.572450     0.510839  Biso 1.000000     H
    H   1.0    -0.005142     0.577541     0.560987  Biso 1.000000     H
    H   1.0     0.208146     0.667874     0.748469  Biso 1.000000     H
    H   1.0     0.183503     0.758010     0.705999  Biso 1.000000     H
    H   1.0     0.535526     0.198299     0.640837  Biso 1.000000     H
    H   1.0     0.460889     0.275419     0.642589  Biso 1.000000     H
    H   1.0     0.398700     0.056383     0.744671  Biso 1.000000     H
    H   1.0     0.498308     0.067857     0.700939  Biso 1.000000     H
    H   1.0     0.261018     0.048526     0.669867  Biso 1.000000     H
    H   1.0     0.266722     0.055017     0.574030  Biso 1.000000     H
    H   1.0     0.323931     0.267660     0.568549  Biso 1.000000     H
    H   1.0     0.303036     0.184396     0.513856  Biso 1.000000     H
    H   1.0     0.408861     0.072428     0.510831  Biso 1.000000     H
    H   1.0     0.505102     0.077501     0.561012  Biso 1.000000     H
    H   1.0     0.291802     0.167966     0.748427  Biso 1.000000     H
    H   1.0     0.316544     0.258059     0.705915  Biso 1.000000     H
    H   1.0     0.964437     0.801703     0.140648  Biso 1.000000     H
    H   1.0     0.039116     0.724610     0.142556  Biso 1.000000     H
    H   1.0     0.100923     0.943684     0.244327  Biso 1.000000     H
    H   1.0     0.001472     0.932055     0.200393  Biso 1.000000     H
    H   1.0     0.238900     0.951547     0.169622  Biso 1.000000     H
    H   1.0     0.233280     0.945084     0.073797  Biso 1.000000     H
    H   1.0     0.176121     0.732407     0.068634  Biso 1.000000     H
    H   1.0     0.197052     0.815666     0.013797  Biso 1.000000     H
    H   1.0     0.091362     0.927610     0.010491  Biso 1.000000     H
    H   1.0    -0.005021     0.922607     0.060490  Biso 1.000000     H
    H   1.0     0.208057     0.832139     0.248348  Biso 1.000000     H
    H   1.0     0.183397     0.742020     0.205995  Biso 1.000000     H
    H   1.0     0.464492     0.698335     0.859315  Biso 1.000000     H
    H   1.0     0.539222     0.775397     0.857446  Biso 1.000000     H
    H   1.0     0.601043     0.556337     0.755681  Biso 1.000000     H
    H   1.0     0.501537     0.567925     0.799529  Biso 1.000000     H
    H   1.0     0.738944     0.548404     0.830529  Biso 1.000000     H
    H   1.0     0.733182     0.554926     0.926341  Biso 1.000000     H
    H   1.0     0.676157     0.767564     0.931457  Biso 1.000000     H
    H   1.0     0.697014     0.684279     0.986274  Biso 1.000000     H
    H   1.0     0.591225     0.572357     0.989515  Biso 1.000000     H
    H   1.0     0.494900     0.577405     0.939435  Biso 1.000000     H
    H   1.0     0.708156     0.667849     0.751728  Biso 1.000000     H
    H   1.0     0.683506     0.757965     0.794078  Biso 1.000000     H
    H   1.0     0.035500     0.301567     0.359156  Biso 1.000000     H
    H   1.0     0.960743     0.224522     0.357392  Biso 1.000000     H
    H   1.0     0.898884     0.443620     0.255300  Biso 1.000000     H
    H   1.0     0.998431     0.432058     0.299114  Biso 1.000000     H
    H   1.0     0.761118     0.451487     0.330035  Biso 1.000000     H
    H   1.0     0.766752     0.445023     0.425876  Biso 1.000000     H
    H   1.0     0.823836     0.232345     0.431394  Biso 1.000000     H
    H   1.0     0.802974     0.315613     0.486084  Biso 1.000000     H
    H   1.0     0.908861     0.427536     0.489143  Biso 1.000000     H
    H   1.0     0.000000     0.422444     0.438994  Biso 1.000000     H
    H   1.0     0.791832     0.332113     0.251513  Biso 1.000000     H
    H   1.0     0.816473     0.241976     0.293983  Biso 1.000000     H
    C   1.0     0.531306     0.776620     0.497214  Biso 1.000000     C
    C   1.0     0.572183     0.817607     0.432692  Biso 1.000000     C
    C   1.0     0.533239     0.787890     0.360785  Biso 1.000000     C
    C   1.0     0.578883     0.826799     0.296227  Biso 1.000000     C
    C   1.0     0.569695     0.915796     0.301725  Biso 1.000000     C
    C   1.0     0.608905     0.945050     0.373033  Biso 1.000000     C
    C   1.0     0.704913     0.923212     0.375353  Biso 1.000000     C
    C   1.0     0.715131     0.834671     0.369931  Biso 1.000000     C
    C   1.0     0.668459     0.795640     0.434694  Biso 1.000000     C
    C   1.0     0.563093     0.906460     0.438174  Biso 1.000000     C
    C   1.0     0.675286     0.805128     0.298094  Biso 1.000000     C
    C   1.0     0.540349     0.799681     0.224176  Biso 1.000000     C
    C   1.0     0.601622     0.033610     0.379438  Biso 1.000000     C
    C   1.0     0.808634     0.809245     0.375766  Biso 1.000000     C
    C   1.0     0.968603     0.223321    -0.002701  Biso 1.000000     C
    C   1.0     0.927727     0.182317     0.932836  Biso 1.000000     C
    C   1.0     0.966729     0.212058     0.860898  Biso 1.000000     C
    C   1.0     0.921160     0.173148     0.796375  Biso 1.000000     C
    C   1.0     0.930440     0.084181     0.802072  Biso 1.000000     C
    C   1.0     0.891114     0.054866     0.873365  Biso 1.000000     C
    C   1.0     0.795085     0.076680     0.875571  Biso 1.000000     C
    C   1.0     0.784847     0.165226     0.870007  Biso 1.000000     C
    C   1.0     0.831449     0.204270     0.934736  Biso 1.000000     C
    C   1.0     0.936792     0.093439     0.938520  Biso 1.000000     C
    C   1.0     0.824744     0.194772     0.798141  Biso 1.000000     C
    C   1.0     0.959706     0.200251     0.724269  Biso 1.000000     C
    C   1.0     0.898330     0.966264     0.879685  Biso 1.000000     C
    C   1.0     0.691337     0.190664     0.875765  Biso 1.000000     C
    C   1.0     0.468614     0.276668     0.000000  Biso 1.000000     C
    C   1.0     0.427746     0.317671     0.067122  Biso 1.000000     C
    C   1.0     0.466676     0.287906     0.139077  Biso 1.000000     C
    C   1.0     0.421101     0.326823     0.203588  Biso 1.000000     C
    C   1.0     0.430388     0.415795     0.197906  Biso 1.000000     C
    C   1.0     0.391143     0.445121     0.126584  Biso 1.000000     C
    C   1.0     0.295108     0.423316     0.124301  Biso 1.000000     C
    C   1.0     0.284844     0.334774     0.129880  Biso 1.000000     C
    C   1.0     0.331456     0.295737     0.065162  Biso 1.000000     C
    C   1.0     0.436866     0.406548     0.061460  Biso 1.000000     C
    C   1.0     0.324681     0.305220     0.201771  Biso 1.000000     C
    C   1.0     0.459646     0.299707     0.275702  Biso 1.000000     C
    C   1.0     0.398376     0.533703     0.120285  Biso 1.000000     C
    C   1.0     0.191331     0.309350     0.124147  Biso 1.000000     C
    C   1.0     0.031344     0.723377     0.502773  Biso 1.000000     C
    C   1.0     0.072221     0.682401     0.567299  Biso 1.000000     C
    C   1.0     0.033297     0.712148     0.639200  Biso 1.000000     C
    C   1.0     0.078877     0.673199     0.703766  Biso 1.000000     C
    C   1.0     0.069598     0.584208     0.698248  Biso 1.000000     C
    C   1.0     0.108839     0.554944     0.626961  Biso 1.000000     C
    C   1.0     0.204866     0.576749     0.624686  Biso 1.000000     C
    C   1.0     0.215139     0.665283     0.630101  Biso 1.000000     C
    C   1.0     0.168510     0.704332     0.565321  Biso 1.000000     C
    C   1.0     0.063085     0.593551     0.561809  Biso 1.000000     C
    C   1.0     0.175301     0.694817     0.701938  Biso 1.000000     C
    C   1.0     0.040343     0.700312     0.775811  Biso 1.000000     C
    C   1.0     0.101550     0.466410     0.620550  Biso 1.000000     C
    C   1.0     0.308651     0.690696     0.624259  Biso 1.000000     C
    C   1.0     0.468670     0.223367     0.502769  Biso 1.000000     C
    C   1.0     0.427791     0.182381     0.567290  Biso 1.000000     C
    C   1.0     0.466736     0.212099     0.639197  Biso 1.000000     C
    C   1.0     0.421093     0.173190     0.703756  Biso 1.000000     C
    C   1.0     0.430282     0.084193     0.698259  Biso 1.000000     C
    C   1.0     0.391072     0.054938     0.626951  Biso 1.000000     C
    C   1.0     0.295064     0.076775     0.624632  Biso 1.000000     C
    C   1.0     0.284844     0.165315     0.630054  Biso 1.000000     C
    C   1.0     0.331515     0.204346     0.565290  Biso 1.000000     C
    C   1.0     0.436883     0.093528     0.561809  Biso 1.000000     C
    C   1.0     0.324690     0.194859     0.701889  Biso 1.000000     C
    C   1.0     0.459626     0.200308     0.775807  Biso 1.000000     C
    C   1.0     0.398354     0.966378     0.620545  Biso 1.000000     C
    C   1.0     0.191342     0.190741     0.624218  Biso 1.000000     C
    C   1.0     0.031373     0.776666     0.000000  Biso 1.000000     C
    C   1.0     0.072248     0.817671     0.067147  Biso 1.000000     C
    C   1.0     0.033245     0.787930     0.139085  Biso 1.000000     C
    C   1.0     0.078814     0.826840     0.203608  Biso 1.000000     C
    C   1.0     0.069534     0.915808     0.197910  Biso 1.000000     C
    C   1.0     0.108860     0.945122     0.126617  Biso 1.000000     C
    C   1.0     0.204890     0.923307     0.124413  Biso 1.000000     C
    C   1.0     0.215128     0.834761     0.129977  Biso 1.000000     C
    C   1.0     0.168526     0.795718     0.065248  Biso 1.000000     C
    C   1.0     0.063183     0.906548     0.061462  Biso 1.000000     C
    C   1.0     0.175230     0.805217     0.201843  Biso 1.000000     C
    C   1.0     0.040267     0.799738     0.275714  Biso 1.000000     C
    C   1.0     0.101646     0.033723     0.120298  Biso 1.000000     C
    C   1.0     0.308638     0.809323     0.124219  Biso 1.000000     C
    C   1.0     0.531363     0.723318    -0.002687  Biso 1.000000     C
    C   1.0     0.572230     0.682317     0.932861  Biso 1.000000     C
    C   1.0     0.533299     0.712079     0.860907  Biso 1.000000     C
    C   1.0     0.578876     0.673165     0.796395  Biso 1.000000     C
    C   1.0     0.569593     0.584192     0.802077  Biso 1.000000     C
    C   1.0     0.608839     0.554866     0.873399  Biso 1.000000     C
    C   1.0     0.704872     0.576674     0.875682  Biso 1.000000     C
    C   1.0     0.715133     0.665217     0.870104  Biso 1.000000     C
    C   1.0     0.668519     0.704255     0.934821  Biso 1.000000     C
    C   1.0     0.563116     0.593439     0.938524  Biso 1.000000     C
    C   1.0     0.675296     0.694770     0.798213  Biso 1.000000     C
    C   1.0     0.540330     0.700280     0.724282  Biso 1.000000     C
    C   1.0     0.601604     0.466284     0.879699  Biso 1.000000     C
    C   1.0     0.808646     0.690641     0.875835  Biso 1.000000     C
    C   1.0     0.968633     0.276609     0.497209  Biso 1.000000     C
    C   1.0     0.927756     0.317585     0.432683  Biso 1.000000     C
    C   1.0     0.966680     0.287837     0.360782  Biso 1.000000     C
    C   1.0     0.921101     0.326787     0.296217  Biso 1.000000     C
    C   1.0     0.930381     0.415778     0.301734  Biso 1.000000     C
    C   1.0     0.891139     0.445042     0.373021  Biso 1.000000     C
    C   1.0     0.795112     0.423237     0.375296  Biso 1.000000     C
    C   1.0     0.784838     0.334703     0.369881  Biso 1.000000     C
    C   1.0     0.831467     0.295655     0.434661  Biso 1.000000     C
    C   1.0     0.936894     0.406435     0.438173  Biso 1.000000     C
    C   1.0     0.824677     0.305169     0.298044  Biso 1.000000     C
    C   1.0     0.959633     0.299673     0.224172  Biso 1.000000     C
    C   1.0     0.898428     0.533576     0.379432  Biso 1.000000     C
    C   1.0     0.691326     0.309291     0.375724  Biso 1.000000     C
    O   1.0     0.518764     0.813439     0.555957  Biso 1.000000     O
    O   1.0     0.514981     0.703405     0.490856  Biso 1.000000     O
    O   1.0     0.495839     0.738425     0.222077  Biso 1.000000     O
    O   1.0     0.555671     0.843622     0.168611  Biso 1.000000     O
    O   1.0     0.565853     0.069837     0.324880  Biso 1.000000     O
    O   1.0     0.629174     0.068882     0.433939  Biso 1.000000     O
    O   1.0     0.863359     0.860207     0.396844  Biso 1.000000     O
    O   1.0     0.825610     0.738736     0.362294  Biso 1.000000     O
    O   1.0     0.981142     0.186491     0.056094  Biso 1.000000     O
    O   1.0     0.984964     0.296532    -0.009171  Biso 1.000000     O
    O   1.0     0.004224     0.261504     0.722084  Biso 1.000000     O
    O   1.0     0.944320     0.156377     0.668742  Biso 1.000000     O
    O   1.0     0.933997     0.930225     0.825019  Biso 1.000000     O
    O   1.0     0.870776     0.930783     0.934122  Biso 1.000000     O
    O   1.0     0.636580     0.139709     0.896882  Biso 1.000000     O
    O   1.0     0.674383     0.261188     0.862223  Biso 1.000000     O
    O   1.0     0.481147     0.313498     0.943873  Biso 1.000000     O
    O   1.0     0.484967     0.203459     0.000000  Biso 1.000000     O
    O   1.0     0.504106     0.238431     0.277890  Biso 1.000000     O
    O   1.0     0.444322     0.343604     0.331224  Biso 1.000000     O
    O   1.0     0.434024     0.569742     0.174964  Biso 1.000000     O
    O   1.0     0.370802     0.569194     0.065860  Biso 1.000000     O
    O   1.0     0.136571     0.360312     0.103076  Biso 1.000000     O
    O   1.0     0.174365     0.238828     0.137705  Biso 1.000000     O
    O   1.0     0.018792     0.686550     0.444033  Biso 1.000000     O
    O   1.0     0.015006     0.796585     0.509131  Biso 1.000000     O
    O   1.0     0.995833     0.761565     0.777910  Biso 1.000000     O
    O   1.0     0.055670     0.656372     0.831373  Biso 1.000000     O
    O   1.0     0.065797     0.430161     0.675105  Biso 1.000000     O
    O   1.0     0.129123     0.431158     0.566049  Biso 1.000000     O
    O   1.0     0.363361     0.639747     0.603150  Biso 1.000000     O
    O   1.0     0.325643     0.761202     0.637738  Biso 1.000000     O
    O   1.0     0.481213     0.186548     0.444026  Biso 1.000000     O
    O   1.0     0.484996     0.296581     0.509126  Biso 1.000000     O
    O   1.0     0.504136     0.261564     0.777906  Biso 1.000000     O
    O   1.0     0.444307     0.156366     0.831371  Biso 1.000000     O
    O   1.0     0.434124     0.930150     0.675103  Biso 1.000000     O
    O   1.0     0.370804     0.931107     0.566044  Biso 1.000000     O
    O   1.0     0.136617     0.139778     0.603139  Biso 1.000000     O
    O   1.0     0.174366     0.261250     0.637690  Biso 1.000000     O
    O   1.0     0.018834     0.813496     0.943888  Biso 1.000000     O
    O   1.0     0.015012     0.703454     0.000000  Biso 1.000000     O
    O   1.0     0.995746     0.738487     0.277899  Biso 1.000000     O
    O   1.0     0.055656     0.843611     0.331241  Biso 1.000000     O
    O   1.0     0.065981     0.069763     0.174965  Biso 1.000000     O
    O   1.0     0.129201     0.069205     0.065861  Biso 1.000000     O
    O   1.0     0.363396     0.860278     0.103101  Biso 1.000000     O
    O   1.0     0.325592     0.738799     0.137761  Biso 1.000000     O
    O   1.0     0.518830     0.686488     0.056110  Biso 1.000000     O
    O   1.0     0.515010     0.796527    -0.009163  Biso 1.000000     O
    O   1.0     0.495872     0.761557     0.722094  Biso 1.000000     O
    O   1.0     0.555654     0.656383     0.668759  Biso 1.000000     O
    O   1.0     0.565955     0.430246     0.825020  Biso 1.000000     O
    O   1.0     0.629177     0.430794     0.934124  Biso 1.000000     O
    O   1.0     0.863405     0.639678     0.896906  Biso 1.000000     O
    O   1.0     0.825612     0.761163     0.862278  Biso 1.000000     O
    O   1.0     0.981185     0.313436     0.555950  Biso 1.000000     O
    O   1.0     0.984971     0.203401     0.490852  Biso 1.000000     O
    O   1.0     0.004143     0.238419     0.222072  Biso 1.000000     O
    O   1.0     0.944307     0.343613     0.168609  Biso 1.000000     O
    O   1.0     0.934183     0.569825     0.324878  Biso 1.000000     O
    O   1.0     0.870855     0.568827     0.433933  Biso 1.000000     O
    O   1.0     0.636616     0.360240     0.396833  Biso 1.000000     O
    O   1.0     0.674334     0.238784     0.362245  Biso 1.000000     O
   Zn   1.0     0.433644     0.823511     0.641004  Biso 1.000000    Zn
   Zn   1.0     0.481135     0.670196     0.587246  Biso 1.000000    Zn
   Zn   1.0     0.066365     0.176510     0.141040  Biso 1.000000    Zn
   Zn   1.0     0.018842     0.329783     0.087156  Biso 1.000000    Zn
   Zn   1.0     0.566366     0.323489     0.858937  Biso 1.000000    Zn
   Zn   1.0     0.518847     0.170214     0.912822  Biso 1.000000    Zn
   Zn   1.0     0.933630     0.676463     0.358994  Biso 1.000000    Zn
   Zn   1.0     0.981127     0.829782     0.412747  Biso 1.000000    Zn
   Zn   1.0     0.566332     0.176476     0.358979  Biso 1.000000    Zn
   Zn   1.0     0.518842     0.329790     0.412737  Biso 1.000000    Zn
   Zn   1.0     0.933612     0.823477     0.858943  Biso 1.000000    Zn
   Zn   1.0     0.981135     0.670203     0.912827  Biso 1.000000    Zn
   Zn   1.0     0.433610     0.676498     0.141046  Biso 1.000000    Zn
   Zn   1.0     0.481129     0.829772     0.087162  Biso 1.000000    Zn
   Zn   1.0     0.066346     0.323524     0.640989  Biso 1.000000    Zn
   Zn   1.0     0.018849     0.170204     0.587236  Biso 1.000000    Zn
