#======================================================================

# CRYSTAL DATA

#----------------------------------------------------------------------

data_VESTA_phase_1


_pd_phase_name                         MOF
_cell_length_a                         13.39600
_cell_length_b                         15.74400
_cell_length_c                         23.74400
_cell_angle_alpha                      89.87200
_cell_angle_beta                       90.12400
_cell_angle_gamma                      101.06400
_symmetry_space_group_name_H-M         "P 1"
_symmetry_Int_Tables_number            1

loop_
_symmetry_equiv_pos_as_xyz
   "x, y, z"

loop_
   _atom_site_label
   _atom_site_occupancy
   _atom_site_fract_x
   _atom_site_fract_y
   _atom_site_fract_z
   _atom_site_adp_type
   _atom_site_B_iso_or_equiv
   _atom_site_type_symbol
    H   1.0     0.078468     0.088000     0.330307  Biso 1.000000     H
    H   1.0     0.578890     0.088213     0.330587  Biso 1.000000     H
    H   1.0     0.034349     0.377482     0.264522  Biso 1.000000     H
    H   1.0     0.534391     0.377470     0.264565  Biso 1.000000     H
    H   1.0     0.303739     0.308588     0.411741  Biso 1.000000     H
    H   1.0     0.803983     0.308473     0.411869  Biso 1.000000     H
    H   1.0     0.328596     0.387787     0.265490  Biso 1.000000     H
    H   1.0     0.828207     0.387744     0.265606  Biso 1.000000     H
    H   1.0     0.331404     0.547564     0.253487  Biso 1.000000     H
    H   1.0     0.830966     0.547530     0.253633  Biso 1.000000     H
    H   1.0     0.504328     0.600575     0.406178  Biso 1.000000     H
    H   1.0     0.000000     0.600566     0.406061  Biso 1.000000     H
    H   1.0     0.505517     0.441559     0.417337  Biso 1.000000     H
    H   1.0     0.000000     0.441550     0.417214  Biso 1.000000     H
    H   1.0     0.162482     0.441870     0.227356  Biso 1.000000     H
    H   1.0     0.662810     0.441983     0.227468  Biso 1.000000     H
    H   1.0     0.084867     0.396065     0.169647  Biso 1.000000     H
    H   1.0     0.585312     0.396281     0.169694  Biso 1.000000     H
    H   1.0     0.224112     0.506612     0.134551  Biso 1.000000     H
    H   1.0     0.724616     0.506772     0.134677  Biso 1.000000     H
    H   1.0     0.316899     0.460221     0.170436  Biso 1.000000     H
    H   1.0     0.817384     0.460347     0.170571  Biso 1.000000     H
    H   1.0     0.346349     0.315876     0.138515  Biso 1.000000     H
    H   1.0     0.846738     0.315971     0.138706  Biso 1.000000     H
    H   1.0     0.275313     0.267748     0.079506  Biso 1.000000     H
    H   1.0     0.775800     0.267863     0.079663  Biso 1.000000     H
    H   1.0     0.115200     0.248144     0.133747  Biso 1.000000     H
    H   1.0     0.615584     0.248253     0.133794  Biso 1.000000     H
    H   1.0     0.206405     0.199530     0.170285  Biso 1.000000     H
    H   1.0     0.706721     0.199633     0.170381  Biso 1.000000     H
    H   1.0     0.186965     0.384168     0.076858  Biso 1.000000     H
    H   1.0     0.687489     0.384312     0.076975  Biso 1.000000     H
    H   1.0     0.424021     0.411308     0.829487  Biso 1.000000     H
    H   1.0     0.924106     0.411253     0.829489  Biso 1.000000     H
    H   1.0     0.467995     0.121839     0.764569  Biso 1.000000     H
    H   1.0     0.968131     0.121866     0.764449  Biso 1.000000     H
    H   1.0     0.198419     0.190653     0.912331  Biso 1.000000     H
    H   1.0     0.698220     0.190628     0.912435  Biso 1.000000     H
    H   1.0     0.173222     0.112429     0.765469  Biso 1.000000     H
    H   1.0     0.674338     0.112637     0.765988  Biso 1.000000     H
    H   1.0     0.169131     0.952575     0.752822  Biso 1.000000     H
    H   1.0     0.670460     0.952814     0.753325  Biso 1.000000     H
    H   1.0    -0.002143     0.898210     0.905690  Biso 1.000000     H
    H   1.0     0.496294     0.898022     0.905183  Biso 1.000000     H
    H   1.0    -0.002076     0.057309     0.917520  Biso 1.000000     H
    H   1.0     0.496295     0.057096     0.917057  Biso 1.000000     H
    H   1.0     0.338600     0.057384     0.727848  Biso 1.000000     H
    H   1.0     0.838878     0.057446     0.727741  Biso 1.000000     H
    H   1.0     0.416326     0.102171     0.669983  Biso 1.000000     H
    H   1.0     0.916531     0.102294     0.669875  Biso 1.000000     H
    H   1.0     0.276173    -0.007894     0.635319  Biso 1.000000     H
    H   1.0     0.776327    -0.007819     0.635220  Biso 1.000000     H
    H   1.0     0.184011     0.039614     0.670575  Biso 1.000000     H
    H   1.0     0.684222     0.039701     0.670514  Biso 1.000000     H
    H   1.0     0.155999     0.183999     0.637566  Biso 1.000000     H
    H   1.0     0.656120     0.184023     0.637510  Biso 1.000000     H
    H   1.0     0.227408     0.231245     0.578491  Biso 1.000000     H
    H   1.0     0.727518     0.231335     0.578450  Biso 1.000000     H
    H   1.0     0.387395     0.250393     0.633099  Biso 1.000000     H
    H   1.0     0.887495     0.250541     0.633066  Biso 1.000000     H
    H   1.0     0.296739     0.299861     0.669088  Biso 1.000000     H
    H   1.0     0.796782     0.299907     0.669084  Biso 1.000000     H
    H   1.0     0.314632     0.114058     0.576944  Biso 1.000000     H
    H   1.0     0.814822     0.114183     0.576868  Biso 1.000000     H
    H   1.0     0.423893     0.911626     0.669340  Biso 1.000000     H
    H   1.0     0.920983     0.909524     0.667795  Biso 1.000000     H
    H   1.0     0.468020     0.621938     0.734687  Biso 1.000000     H
    H   1.0     0.968885     0.621657     0.734882  Biso 1.000000     H
    H   1.0     0.199565     0.691644     0.587799  Biso 1.000000     H
    H   1.0     0.698053     0.691260     0.587240  Biso 1.000000     H
    H   1.0     0.174480     0.611785     0.733832  Biso 1.000000     H
    H   1.0     0.673466     0.611995     0.733692  Biso 1.000000     H
    H   1.0     0.170183     0.451713     0.746122  Biso 1.000000     H
    H   1.0     0.669600     0.452088     0.746078  Biso 1.000000     H
    H   1.0    -0.002937     0.399199     0.593476  Biso 1.000000     H
    H   1.0     0.496667     0.398976     0.593414  Biso 1.000000     H
    H   1.0    -0.002565     0.558501     0.582007  Biso 1.000000     H
    H   1.0     0.496538     0.558153     0.581836  Biso 1.000000     H
    H   1.0     0.339487     0.557414     0.771482  Biso 1.000000     H
    H   1.0     0.839730     0.556327     0.771591  Biso 1.000000     H
    H   1.0     0.416972     0.602386     0.829443  Biso 1.000000     H
    H   1.0     0.916895     0.602526     0.829371  Biso 1.000000     H
    H   1.0     0.277200     0.491858     0.864020  Biso 1.000000     H
    H   1.0     0.777795     0.491710     0.864438  Biso 1.000000     H
    H   1.0     0.184806     0.538980     0.828310  Biso 1.000000     H
    H   1.0     0.684932     0.537907     0.828451  Biso 1.000000     H
    H   1.0     0.155974     0.683146     0.860776  Biso 1.000000     H
    H   1.0     0.655027     0.682186     0.860320  Biso 1.000000     H
    H   1.0     0.226881     0.730527     0.920012  Biso 1.000000     H
    H   1.0     0.726232     0.730629     0.919186  Biso 1.000000     H
    H   1.0     0.387210     0.750203     0.865929  Biso 1.000000     H
    H   1.0     0.886064     0.750606     0.864772  Biso 1.000000     H
    H   1.0     0.296444     0.799503     0.829538  Biso 1.000000     H
    H   1.0     0.794433     0.798570     0.828115  Biso 1.000000     H
    H   1.0     0.314816     0.613757     0.922181  Biso 1.000000     H
    H   1.0     0.814798     0.614365     0.921956  Biso 1.000000     H
    H   1.0     0.080223     0.587273     0.170394  Biso 1.000000     H
    H   1.0     0.576600     0.587102     0.170655  Biso 1.000000     H
    H   1.0     0.032403     0.875520     0.235698  Biso 1.000000     H
    H   1.0     0.530165     0.876102     0.235333  Biso 1.000000     H
    H   1.0     0.301296     0.806496     0.087113  Biso 1.000000     H
    H   1.0     0.804208     0.806471     0.087284  Biso 1.000000     H
    H   1.0     0.325149     0.884548     0.234077  Biso 1.000000     H
    H   1.0     0.826029     0.883988     0.233874  Biso 1.000000     H
    H   1.0     0.329681     0.044552     0.246783  Biso 1.000000     H
    H   1.0     0.829283     0.043755     0.246435  Biso 1.000000     H
    H   1.0     0.502604     0.098931     0.094505  Biso 1.000000     H
    H   1.0     0.000000     0.099045     0.095113  Biso 1.000000     H
    H   1.0     0.501908     0.939633     0.082520  Biso 1.000000     H
    H   1.0     0.000000     0.939994     0.083313  Biso 1.000000     H
    H   1.0     0.161331     0.940943     0.272227  Biso 1.000000     H
    H   1.0     0.660021     0.941314     0.271830  Biso 1.000000     H
    H   1.0     0.084300     0.895760     0.330246  Biso 1.000000     H
    H   1.0     0.582985     0.896768     0.330009  Biso 1.000000     H
    H   1.0     0.223739     0.000000     0.364663  Biso 1.000000     H
    H   1.0     0.723392     0.000000     0.364143  Biso 1.000000     H
    H   1.0     0.316336     0.959996     0.329231  Biso 1.000000     H
    H   1.0     0.815246     0.959638     0.328614  Biso 1.000000     H
    H   1.0     0.346105     0.816169     0.362121  Biso 1.000000     H
    H   1.0     0.843953     0.815484     0.361561  Biso 1.000000     H
    H   1.0     0.275629     0.768515     0.421390  Biso 1.000000     H
    H   1.0     0.773533     0.768409     0.421007  Biso 1.000000     H
    H   1.0     0.115059     0.748162     0.367145  Biso 1.000000     H
    H   1.0     0.612659     0.749069     0.367122  Biso 1.000000     H
    H   1.0     0.206079     0.699294     0.331001  Biso 1.000000     H
    H   1.0     0.702712     0.699218     0.330896  Biso 1.000000     H
    H   1.0     0.186827     0.884773     0.423072  Biso 1.000000     H
    H   1.0     0.685861     0.885344     0.422727  Biso 1.000000     H
    C   1.0     0.276285     0.154629     0.453387  Biso 1.000000     C
    C   1.0     0.776267     0.154467     0.453254  Biso 1.000000     C
    C   1.0     0.353984     0.188416     0.408461  Biso 1.000000     C
    C   1.0     0.853794     0.188140     0.408227  Biso 1.000000     C
    C   1.0     0.425631     0.141448     0.383201  Biso 1.000000     C
    C   1.0     0.924899     0.140970     0.382588  Biso 1.000000     C
    C   1.0     0.492935     0.189376     0.340325  Biso 1.000000     C
    C   1.0     0.992605     0.189208     0.340032  Biso 1.000000     C
    C   1.0     0.068474     0.151077     0.314982  Biso 1.000000     C
    C   1.0     0.568744     0.151221     0.315210  Biso 1.000000     C
    C   1.0     0.130078     0.193529     0.273679  Biso 1.000000     C
    C   1.0     0.630174     0.193575     0.273786  Biso 1.000000     C
    C   1.0     0.118387     0.275262     0.251322  Biso 1.000000     C
    C   1.0     0.618507     0.275305     0.251405  Biso 1.000000     C
    C   1.0     0.046230     0.314640     0.278612  Biso 1.000000     C
    C   1.0     0.546310     0.314652     0.278686  Biso 1.000000     C
    C   1.0     0.486076     0.273785     0.322905  Biso 1.000000     C
    C   1.0     0.985951     0.273728     0.322786  Biso 1.000000     C
    C   1.0     0.355226     0.272303     0.391572  Biso 1.000000     C
    C   1.0     0.855279     0.272168     0.391539  Biso 1.000000     C
    C   1.0     0.416991     0.406163     0.342196  Biso 1.000000     C
    C   1.0     0.916941     0.406119     0.342192  Biso 1.000000     C
    C   1.0     0.417434     0.580346     0.329377  Biso 1.000000     C
    C   1.0     0.917406     0.580335     0.329383  Biso 1.000000     C
    C   1.0     0.367782     0.434584     0.295882  Biso 1.000000     C
    C   1.0     0.867530     0.434546     0.295954  Biso 1.000000     C
    C   1.0     0.368454     0.522884     0.289115  Biso 1.000000     C
    C   1.0     0.868194     0.522852     0.289199  Biso 1.000000     C
    C   1.0     0.466939     0.553290     0.375719  Biso 1.000000     C
    C   1.0     0.967103     0.553273     0.375651  Biso 1.000000     C
    C   1.0     0.466949     0.465111     0.381771  Biso 1.000000     C
    C   1.0     0.967095     0.465088     0.381700  Biso 1.000000     C
    C   1.0     0.160571     0.401136     0.189678  Biso 1.000000     C
    C   1.0     0.660955     0.401272     0.189783  Biso 1.000000     C
    C   1.0     0.242618     0.445339     0.149213  Biso 1.000000     C
    C   1.0     0.743102     0.445483     0.149339  Biso 1.000000     C
    C   1.0     0.271840     0.306813     0.117411  Biso 1.000000     C
    C   1.0     0.772266     0.306926     0.117563  Biso 1.000000     C
    C   1.0     0.188584     0.261268     0.156671  Biso 1.000000     C
    C   1.0     0.688916     0.261375     0.156769  Biso 1.000000     C
    C   1.0     0.225281     0.344884     0.953588  Biso 1.000000     C
    C   1.0     0.725156     0.344860     0.953678  Biso 1.000000     C
    C   1.0     0.148001     0.310782     0.908520  Biso 1.000000     C
    C   1.0     0.647862     0.310786     0.908608  Biso 1.000000     C
    C   1.0     0.076432     0.357676     0.882861  Biso 1.000000     C
    C   1.0     0.576334     0.357733     0.882944  Biso 1.000000     C
    C   1.0     0.009618     0.309858     0.839823  Biso 1.000000     C
    C   1.0     0.509500     0.309899     0.839899  Biso 1.000000     C
    C   1.0     0.434067     0.348252     0.814370  Biso 1.000000     C
    C   1.0     0.934155     0.348219     0.814334  Biso 1.000000     C
    C   1.0     0.372843     0.306019     0.772850  Biso 1.000000     C
    C   1.0     0.872909     0.306014     0.772817  Biso 1.000000     C
    C   1.0     0.384153     0.224152     0.750840  Biso 1.000000     C
    C   1.0     0.884270     0.224173     0.750782  Biso 1.000000     C
    C   1.0     0.456201     0.184698     0.778461  Biso 1.000000     C
    C   1.0     0.956340     0.184707     0.778374  Biso 1.000000     C
    C   1.0     0.016560     0.225519     0.822639  Biso 1.000000     C
    C   1.0     0.516398     0.225535     0.822733  Biso 1.000000     C
    C   1.0     0.146988     0.226938     0.891874  Biso 1.000000     C
    C   1.0     0.646822     0.226933     0.891965  Biso 1.000000     C
    C   1.0     0.085670     0.093298     0.842293  Biso 1.000000     C
    C   1.0     0.585482     0.093302     0.842351  Biso 1.000000     C
    C   1.0     0.083722     0.919232     0.828718  Biso 1.000000     C
    C   1.0     0.583651     0.919256     0.828731  Biso 1.000000     C
    C   1.0     0.134184     0.065327     0.795766  Biso 1.000000     C
    C   1.0     0.634803     0.065456     0.796088  Biso 1.000000     C
    C   1.0     0.132758     0.977043     0.788625  Biso 1.000000     C
    C   1.0     0.633467     0.977186     0.788930  Biso 1.000000     C
    C   1.0     0.035173     0.945836     0.875362  Biso 1.000000     C
    C   1.0     0.534222     0.945734     0.875084  Biso 1.000000     C
    C   1.0     0.035902     0.034027     0.881788  Biso 1.000000     C
    C   1.0     0.534913     0.033914     0.881539  Biso 1.000000     C
    C   1.0     0.340765     0.097811     0.689896  Biso 1.000000     C
    C   1.0     0.840972     0.097886     0.689799  Biso 1.000000     C
    C   1.0     0.258343     0.053757     0.649495  Biso 1.000000     C
    C   1.0     0.758537     0.053836     0.649416  Biso 1.000000     C
    C   1.0     0.230511     0.192422     0.616674  Biso 1.000000     C
    C   1.0     0.730640     0.192498     0.616624  Biso 1.000000     C
    C   1.0     0.314031     0.237836     0.655899  Biso 1.000000     C
    C   1.0     0.814126     0.237917     0.655862  Biso 1.000000     C
    C   1.0     0.225760     0.845516     0.546272  Biso 1.000000     C
    C   1.0     0.725238     0.845417     0.546025  Biso 1.000000     C
    C   1.0     0.148257     0.811352     0.591082  Biso 1.000000     C
    C   1.0     0.647736     0.811379     0.590868  Biso 1.000000     C
    C   1.0     0.076038     0.857835     0.616160  Biso 1.000000     C
    C   1.0     0.576176     0.858237     0.616234  Biso 1.000000     C
    C   1.0     0.008736     0.809470     0.658810  Biso 1.000000     C
    C   1.0     0.509344     0.810252     0.659204  Biso 1.000000     C
    C   1.0     0.433947     0.848511     0.684556  Biso 1.000000     C
    C   1.0     0.931951     0.846884     0.683428  Biso 1.000000     C
    C   1.0     0.372805     0.806131     0.726040  Biso 1.000000     C
    C   1.0     0.870449     0.804035     0.724610  Biso 1.000000     C
    C   1.0     0.384195     0.724201     0.748171  Biso 1.000000     C
    C   1.0     0.883161     0.722876     0.747407  Biso 1.000000     C
    C   1.0     0.456164     0.684838     0.720710  Biso 1.000000     C
    C   1.0     0.956248     0.684146     0.720532  Biso 1.000000     C
    C   1.0     0.016404     0.725341     0.676390  Biso 1.000000     C
    C   1.0     0.516237     0.725811     0.676480  Biso 1.000000     C
    C   1.0     0.147683     0.727568     0.607943  Biso 1.000000     C
    C   1.0     0.646634     0.727435     0.607578  Biso 1.000000     C
    C   1.0     0.086087     0.593521     0.657150  Biso 1.000000     C
    C   1.0     0.585062     0.593518     0.656980  Biso 1.000000     C
    C   1.0     0.083853     0.419302     0.670312  Biso 1.000000     C
    C   1.0     0.583419     0.419339     0.670258  Biso 1.000000     C
    C   1.0     0.135026     0.565002     0.703514  Biso 1.000000     C
    C   1.0     0.634061     0.565157     0.703389  Biso 1.000000     C
    C   1.0     0.133474     0.476621     0.710451  Biso 1.000000     C
    C   1.0     0.632798     0.476826     0.710377  Biso 1.000000     C
    C   1.0     0.034830     0.446475     0.623835  Biso 1.000000     C
    C   1.0     0.534286     0.446339     0.623762  Biso 1.000000     C
    C   1.0     0.035717     0.534745     0.617609  Biso 1.000000     C
    C   1.0     0.534881     0.534569     0.617478  Biso 1.000000     C
    C   1.0     0.341394     0.597769     0.809335  Biso 1.000000     C
    C   1.0     0.841260     0.597142     0.809208  Biso 1.000000     C
    C   1.0     0.259064     0.553389     0.849596  Biso 1.000000     C
    C   1.0     0.759217     0.552903     0.849671  Biso 1.000000     C
    C   1.0     0.230396     0.691814     0.881946  Biso 1.000000     C
    C   1.0     0.729641     0.691454     0.881317  Biso 1.000000     C
    C   1.0     0.313918     0.737531     0.842915  Biso 1.000000     C
    C   1.0     0.812643     0.737040     0.841904  Biso 1.000000     C
    C   1.0     0.275602     0.653163     0.045490  Biso 1.000000     C
    C   1.0     0.778560     0.653584     0.045412  Biso 1.000000     C
    C   1.0     0.352299     0.686673     0.090951  Biso 1.000000     C
    C   1.0     0.855351     0.686723     0.090948  Biso 1.000000     C
    C   1.0     0.423715     0.639829     0.116863  Biso 1.000000     C
    C   1.0     0.926792     0.639778     0.116791  Biso 1.000000     C
    C   1.0     0.490053     0.687815     0.160102  Biso 1.000000     C
    C   1.0     0.993246     0.687731     0.160044  Biso 1.000000     C
    C   1.0     0.069303     0.650053     0.185578  Biso 1.000000     C
    C   1.0     0.565875     0.650010     0.185699  Biso 1.000000     C
    C   1.0     0.130147     0.692721     0.227144  Biso 1.000000     C
    C   1.0     0.626801     0.692776     0.227158  Biso 1.000000     C
    C   1.0     0.117688     0.774185     0.249290  Biso 1.000000     C
    C   1.0     0.614887     0.774453     0.249144  Biso 1.000000     C
    C   1.0     0.045079     0.812963     0.221732  Biso 1.000000     C
    C   1.0     0.542427     0.813342     0.221528  Biso 1.000000     C
    C   1.0     0.482579     0.772051     0.177267  Biso 1.000000     C
    C   1.0     0.985486     0.771853     0.177352  Biso 1.000000     C
    C   1.0     0.352690     0.770346     0.107729  Biso 1.000000     C
    C   1.0     0.855637     0.770314     0.107857  Biso 1.000000     C
    C   1.0     0.413261     0.903828     0.157449  Biso 1.000000     C
    C   1.0     0.915709     0.903656     0.157785  Biso 1.000000     C
    C   1.0     0.415890     0.077693     0.171167  Biso 1.000000     C
    C   1.0     0.916774     0.077439     0.171306  Biso 1.000000     C
    C   1.0     0.364453     0.931683     0.203879  Biso 1.000000     C
    C   1.0     0.865770     0.931246     0.203883  Biso 1.000000     C
    C   1.0     0.366193     0.019960     0.211084  Biso 1.000000     C
    C   1.0     0.866726     0.019445     0.210985  Biso 1.000000     C
    C   1.0     0.464763     0.051208     0.124622  Biso 1.000000     C
    C   1.0     0.966792     0.051210     0.125105  Biso 1.000000     C
    C   1.0     0.463669     0.963009     0.118114  Biso 1.000000     C
    C   1.0     0.966473     0.963104     0.118699  Biso 1.000000     C
    C   1.0     0.159824     0.900664     0.310208  Biso 1.000000     C
    C   1.0     0.658338     0.901114     0.309861  Biso 1.000000     C
    C   1.0     0.242154     0.945343     0.350444  Biso 1.000000     C
    C   1.0     0.741174     0.945455     0.349953  Biso 1.000000     C
    C   1.0     0.271740     0.807166     0.383214  Biso 1.000000     C
    C   1.0     0.769760     0.807030     0.382803  Biso 1.000000     C
    C   1.0     0.188272     0.761130     0.344197  Biso 1.000000     C
    C   1.0     0.685700     0.761369     0.344006  Biso 1.000000     C
    N   1.0     0.254300     0.392490     0.099412  Biso 1.000000     N
    N   1.0     0.754799     0.392619     0.099545  Biso 1.000000     N
    N   1.0     0.177763     0.315123     0.206768  Biso 1.000000     N
    N   1.0     0.677977     0.315191     0.206873  Biso 1.000000     N
    N   1.0     0.416390     0.315095     0.350689  Biso 1.000000     N
    N   1.0     0.916361     0.315036     0.350654  Biso 1.000000     N
    N   1.0     0.247271     0.106354     0.599302  Biso 1.000000     N
    N   1.0     0.747475     0.106462     0.599239  Biso 1.000000     N
    N   1.0     0.324489     0.184243     0.706366  Biso 1.000000     N
    N   1.0     0.824628     0.184281     0.706302  Biso 1.000000     N
    N   1.0     0.086164     0.184235     0.850797  Biso 1.000000     N
    N   1.0     0.585976     0.184236     0.850895  Biso 1.000000     N
    N   1.0     0.247542     0.605860     0.899596  Biso 1.000000     N
    N   1.0     0.747463     0.605898     0.899397  Biso 1.000000     N
    N   1.0     0.324696     0.684099     0.792613  Biso 1.000000     N
    N   1.0     0.823702     0.682973     0.791935  Biso 1.000000     N
    N   1.0     0.086733     0.684561     0.648792  Biso 1.000000     N
    N   1.0     0.585720     0.684554     0.648499  Biso 1.000000     N
    N   1.0     0.254091     0.892955     0.400605  Biso 1.000000     N
    N   1.0     0.752993     0.893098     0.400155  Biso 1.000000     N
    N   1.0     0.177018     0.814491     0.293751  Biso 1.000000     N
    N   1.0     0.674638     0.814657     0.293485  Biso 1.000000     N
    N   1.0     0.412855     0.812982     0.149009  Biso 1.000000     N
    N   1.0     0.915662     0.812845     0.149232  Biso 1.000000     N
    O   1.0     0.251114     0.070839     0.458962  Biso 1.000000     O
    O   1.0     0.750966     0.070691     0.458860  Biso 1.000000     O
    O   1.0     0.238325     0.207225     0.481346  Biso 1.000000     O
    O   1.0     0.738560     0.207133     0.481294  Biso 1.000000     O
    O   1.0     0.434714     0.064964     0.394430  Biso 1.000000     O
    O   1.0     0.933247     0.064086     0.393148  Biso 1.000000     O
    O   1.0     0.250937     0.428724     0.958230  Biso 1.000000     O
    O   1.0     0.750901     0.428692     0.958342  Biso 1.000000     O
    O   1.0     0.262341     0.292569     0.982549  Biso 1.000000     O
    O   1.0     0.762269     0.292524     0.982590  Biso 1.000000     O
    O   1.0     0.066926     0.434068     0.893805  Biso 1.000000     O
    O   1.0     0.566888     0.434129     0.893915  Biso 1.000000     O
    O   1.0     0.250257     0.929331     0.540740  Biso 1.000000     O
    O   1.0     0.750303     0.929226     0.540657  Biso 1.000000     O
    O   1.0     0.263988     0.793146     0.518260  Biso 1.000000     O
    O   1.0     0.763133     0.792929     0.517935  Biso 1.000000     O
    O   1.0     0.066454     0.934215     0.605020  Biso 1.000000     O
    O   1.0     0.566750     0.934655     0.605073  Biso 1.000000     O
    O   1.0     0.250876     0.569429     0.039812  Biso 1.000000     O
    O   1.0     0.753013     0.569886     0.039760  Biso 1.000000     O
    O   1.0     0.237934     0.705872     0.017228  Biso 1.000000     O
    O   1.0     0.741659     0.706668     0.017075  Biso 1.000000     O
    O   1.0     0.433460     0.563470     0.105962  Biso 1.000000     O
    O   1.0     0.936421     0.563411     0.105828  Biso 1.000000     O
    F   1.0     0.207721     0.155737     0.254338  Biso 1.000000     F
    F   1.0     0.707703     0.155719     0.254354  Biso 1.000000     F
    F   1.0     0.416714     0.666236     0.323431  Biso 1.000000     F
    F   1.0     0.916720     0.666229     0.323429  Biso 1.000000     F
    F   1.0     0.295882     0.344349     0.753025  Biso 1.000000     F
    F   1.0     0.795911     0.344336     0.753027  Biso 1.000000     F
    F   1.0     0.083341     0.833366     0.822206  Biso 1.000000     F
    F   1.0     0.583351     0.833398     0.822211  Biso 1.000000     F
    F   1.0     0.295880     0.844367     0.745735  Biso 1.000000     F
    F   1.0     0.791660     0.840743     0.743307  Biso 1.000000     F
    F   1.0     0.083363     0.333337     0.676576  Biso 1.000000     F
    F   1.0     0.583342     0.333426     0.676568  Biso 1.000000     F
    F   1.0     0.208127     0.655585     0.246927  Biso 1.000000     F
    F   1.0     0.704429     0.655432     0.246993  Biso 1.000000     F
    F   1.0     0.416633     0.163489     0.177811  Biso 1.000000     F
    F   1.0     0.916660     0.163171     0.177800  Biso 1.000000     F
   Cl   1.0     0.027767     0.903290     0.461224  Biso 1.000000    Cl
   Cl   1.0     0.527784     0.903134     0.461547  Biso 1.000000    Cl
   Cl   1.0     0.474184     0.596386     0.961666  Biso 1.000000    Cl
   Cl   1.0     0.973694     0.595928     0.961084  Biso 1.000000    Cl
   Cl   1.0     0.473581     0.096875     0.538205  Biso 1.000000    Cl
   Cl   1.0     0.973367     0.096670     0.537587  Biso 1.000000    Cl
   Cl   1.0     0.028296     0.401759     0.037476  Biso 1.000000    Cl
   Cl   1.0     0.528728     0.403074     0.038036  Biso 1.000000    Cl
   Cd   1.0     0.367854     0.971045     0.469378  Biso 1.000000    Cd
   Cd   1.0     0.867400     0.970694     0.468842  Biso 1.000000    Cd
   Cd   1.0     0.133533     0.528113     0.968401  Biso 1.000000    Cd
   Cd   1.0     0.634274     0.528409     0.968637  Biso 1.000000    Cd
   Cd   1.0     0.133384     0.028900     0.530260  Biso 1.000000    Cd
   Cd   1.0     0.633565     0.029032     0.530278  Biso 1.000000    Cd
   Cd   1.0     0.367950     0.470025     0.030301  Biso 1.000000    Cd
   Cd   1.0     0.868518     0.469828     0.030330  Biso 1.000000    Cd
