#======================================================================

# CRYSTAL DATA

#----------------------------------------------------------------------

data_VESTA_phase_1


_pd_phase_name                         MOF
_cell_length_a                         16.08600
_cell_length_b                         16.09700
_cell_length_c                         16.09500
_cell_angle_alpha                      90.22100
_cell_angle_beta                       89.99100
_cell_angle_gamma                      89.73100
_symmetry_space_group_name_H-M         "P 1"
_symmetry_Int_Tables_number            1

loop_
_symmetry_equiv_pos_as_xyz
   "x, y, z"

loop_
   _atom_site_label
   _atom_site_occupancy
   _atom_site_fract_x
   _atom_site_fract_y
   _atom_site_fract_z
   _atom_site_adp_type
   _atom_site_B_iso_or_equiv
   _atom_site_type_symbol
    H   1.0     0.576724     0.078215     0.733029  Biso 1.000000     H
    H   1.0     0.922886     0.421607     0.734419  Biso 1.000000     H
    H   1.0     0.923761     0.079182     0.766935  Biso 1.000000     H
    H   1.0     0.575922     0.420792     0.768087  Biso 1.000000     H
    H   1.0     0.733385     0.575678     0.078615  Biso 1.000000     H
    H   1.0     0.732706     0.924333     0.421431  Biso 1.000000     H
    H   1.0     0.766621     0.923141     0.078897  Biso 1.000000     H
    H   1.0     0.767570     0.577457     0.422005  Biso 1.000000     H
    H   1.0     0.078188     0.733328     0.576696  Biso 1.000000     H
    H   1.0     0.421151     0.732543     0.923713  Biso 1.000000     H
    H   1.0     0.078390     0.768059     0.924056  Biso 1.000000     H
    H   1.0     0.421319     0.765576     0.576460  Biso 1.000000     H
    H   1.0     0.578427     0.076978     0.266431  Biso 1.000000     H
    H   1.0     0.921828     0.423176     0.267001  Biso 1.000000     H
    H   1.0     0.579226     0.424728     0.233317  Biso 1.000000     H
    H   1.0     0.921670     0.075874     0.232284  Biso 1.000000     H
    H   1.0     0.076593     0.234229     0.920948  Biso 1.000000     H
    H   1.0     0.423553     0.231743     0.578482  Biso 1.000000     H
    H   1.0     0.423489     0.266941     0.921122  Biso 1.000000     H
    H   1.0     0.076384     0.266595     0.578403  Biso 1.000000     H
    H   1.0     0.234214     0.578449     0.423148  Biso 1.000000     H
    H   1.0     0.232814     0.921975     0.076589  Biso 1.000000     H
    H   1.0     0.268516     0.578421     0.075947  Biso 1.000000     H
    H   1.0     0.266684     0.920748     0.423670  Biso 1.000000     H
    H   1.0     0.423431     0.921935     0.267103  Biso 1.000000     H
    H   1.0     0.077507     0.577811     0.266140  Biso 1.000000     H
    H   1.0     0.076255     0.920538     0.232961  Biso 1.000000     H
    H   1.0     0.424436     0.578889     0.232187  Biso 1.000000     H
    H   1.0     0.266741     0.424313     0.920759  Biso 1.000000     H
    H   1.0     0.267533     0.075679     0.578472  Biso 1.000000     H
    H   1.0     0.233672     0.076539     0.921113  Biso 1.000000     H
    H   1.0     0.232642     0.422879     0.578233  Biso 1.000000     H
    H   1.0     0.921779     0.266710     0.423255  Biso 1.000000     H
    H   1.0     0.578566     0.267447     0.076619  Biso 1.000000     H
    H   1.0     0.921659     0.231988     0.076423  Biso 1.000000     H
    H   1.0     0.578877     0.234623     0.423494  Biso 1.000000     H
    H   1.0     0.421399     0.922869     0.733786  Biso 1.000000     H
    H   1.0     0.078007     0.576982     0.733361  Biso 1.000000     H
    H   1.0     0.420998     0.575626     0.766805  Biso 1.000000     H
    H   1.0     0.078480     0.923939     0.767890  Biso 1.000000     H
    H   1.0     0.923684     0.765628     0.078363  Biso 1.000000     H
    H   1.0     0.576625     0.768579     0.421754  Biso 1.000000     H
    H   1.0     0.576695     0.732858     0.078853  Biso 1.000000     H
    H   1.0     0.923837     0.733408     0.421373  Biso 1.000000     H
    H   1.0     0.765992     0.421250     0.576972  Biso 1.000000     H
    H   1.0     0.767295     0.078258     0.923573  Biso 1.000000     H
    H   1.0     0.731988     0.420990     0.924702  Biso 1.000000     H
    H   1.0     0.733378     0.079002     0.576174  Biso 1.000000     H
    H   1.0     0.691117    -0.000911     0.809292  Biso 1.000000     H
    H   1.0     0.808120     0.500386     0.811105  Biso 1.000000     H
    H   1.0     0.809723     0.000181     0.690486  Biso 1.000000     H
    H   1.0     0.689657     0.499995     0.691935  Biso 1.000000     H
    H   1.0     0.809743     0.689069    -0.000604  Biso 1.000000     H
    H   1.0     0.809433     0.810312     0.500493  Biso 1.000000     H
    H   1.0     0.690712     0.808747    -0.000163  Biso 1.000000     H
    H   1.0     0.691001     0.692289     0.500848  Biso 1.000000     H
    H   1.0    -0.000631     0.809975     0.691393  Biso 1.000000     H
    H   1.0     0.500373     0.808368     0.809813  Biso 1.000000     H
    H   1.0    -0.000935     0.691775     0.809934  Biso 1.000000     H
    H   1.0     0.500228     0.689095     0.690561  Biso 1.000000     H
    H   1.0     0.499443     0.191479     0.190463  Biso 1.000000     H
    H   1.0     0.000000     0.308340     0.190579  Biso 1.000000     H
    H   1.0     0.499945     0.311149     0.309406  Biso 1.000000     H
    H   1.0     0.000000     0.189901     0.308750  Biso 1.000000     H
    H   1.0     0.190717     0.310591     0.999882  Biso 1.000000     H
    H   1.0     0.309150     0.308000     0.499341  Biso 1.000000     H
    H   1.0     0.309603     0.190905     0.000000  Biso 1.000000     H
    H   1.0     0.190899     0.189741     0.499384  Biso 1.000000     H
    H   1.0     0.310850     0.499587     0.308462  Biso 1.000000     H
    H   1.0     0.309181     0.000000     0.190729  Biso 1.000000     H
    H   1.0     0.192330     0.499104     0.189515  Biso 1.000000     H
    H   1.0     0.190341     0.999535     0.309334  Biso 1.000000     H
    C   1.0     0.610705     0.104907     0.785369  Biso 1.000000     C
    C   1.0     0.888920     0.394815     0.786522  Biso 1.000000     C
    C   1.0     0.889754     0.105672     0.714557  Biso 1.000000     C
    C   1.0     0.609947     0.394319     0.715496  Biso 1.000000     C
    C   1.0     0.785608     0.609732     0.105255  Biso 1.000000     C
    C   1.0     0.785166     0.890113     0.394835  Biso 1.000000     C
    C   1.0     0.714430     0.889242     0.105546  Biso 1.000000     C
    C   1.0     0.715075     0.611382     0.395379  Biso 1.000000     C
    C   1.0     0.104827     0.785629     0.610737  Biso 1.000000     C
    C   1.0     0.394530     0.784915     0.889783  Biso 1.000000     C
    C   1.0     0.104923     0.715499     0.889939  Biso 1.000000     C
    C   1.0     0.394557     0.713542     0.610426  Biso 1.000000     C
    C   1.0     0.605167     0.110880     0.214294  Biso 1.000000     C
    C   1.0     0.895169     0.389130     0.214668  Biso 1.000000     C
    C   1.0     0.605793     0.390609     0.285550  Biso 1.000000     C
    C   1.0     0.895120     0.110007     0.284787  Biso 1.000000     C
    C   1.0     0.110514     0.286329     0.894258  Biso 1.000000     C
    C   1.0     0.389495     0.284374     0.604975  Biso 1.000000     C
    C   1.0     0.389586     0.214625     0.894438  Biso 1.000000     C
    C   1.0     0.110505     0.214266     0.604994  Biso 1.000000     C
    C   1.0     0.286319     0.605183     0.389128  Biso 1.000000     C
    C   1.0     0.285173     0.895238     0.110591  Biso 1.000000     C
    C   1.0     0.215879     0.604882     0.109950  Biso 1.000000     C
    C   1.0     0.214398     0.894175     0.389618  Biso 1.000000     C
    C   1.0     0.389438     0.895223     0.214781  Biso 1.000000     C
    C   1.0     0.111384     0.604567     0.213963  Biso 1.000000     C
    C   1.0     0.110276     0.894052     0.285333  Biso 1.000000     C
    C   1.0     0.390323     0.605397     0.284702  Biso 1.000000     C
    C   1.0     0.214503     0.390247     0.894168  Biso 1.000000     C
    C   1.0     0.215039     0.109879     0.605025  Biso 1.000000     C
    C   1.0     0.285797     0.110512     0.894426  Biso 1.000000     C
    C   1.0     0.285100     0.388893     0.604850  Biso 1.000000     C
    C   1.0     0.895172     0.214372     0.389246  Biso 1.000000     C
    C   1.0     0.605230     0.215052     0.110484  Biso 1.000000     C
    C   1.0     0.895088     0.284581     0.110462  Biso 1.000000     C
    C   1.0     0.605629     0.286676     0.389547  Biso 1.000000     C
    C   1.0     0.394653     0.888992     0.785937  Biso 1.000000     C
    C   1.0     0.104734     0.611002     0.785678  Biso 1.000000     C
    C   1.0     0.394402     0.609668     0.714534  Biso 1.000000     C
    C   1.0     0.104977     0.889871     0.715319  Biso 1.000000     C
    C   1.0     0.889701     0.713605     0.105121  Biso 1.000000     C
    C   1.0     0.610632     0.715919     0.395259  Biso 1.000000     C
    C   1.0     0.610586     0.785188     0.105521  Biso 1.000000     C
    C   1.0     0.889684     0.785720     0.394789  Biso 1.000000     C
    C   1.0     0.713873     0.394541     0.610991  Biso 1.000000     C
    C   1.0     0.714914     0.104928     0.889555  Biso 1.000000     C
    C   1.0     0.784521     0.394511     0.890554  Biso 1.000000     C
    C   1.0     0.785645     0.105580     0.610253  Biso 1.000000     C
    C   1.0     0.626089     0.221869     0.874026  Biso 1.000000     C
    C   1.0     0.673553     0.062027     0.826773  Biso 1.000000     C
    C   1.0     0.873784     0.277850     0.874306  Biso 1.000000     C
    C   1.0     0.825858     0.437511     0.828144  Biso 1.000000     C
    C   1.0     0.874033     0.222117     0.625978  Biso 1.000000     C
    C   1.0     0.827089     0.062885     0.673058  Biso 1.000000     C
    C   1.0     0.625843     0.277769     0.626163  Biso 1.000000     C
    C   1.0     0.672425     0.437220     0.674141  Biso 1.000000     C
    C   1.0     0.874049     0.625849     0.222028  Biso 1.000000     C
    C   1.0     0.827077     0.672037     0.062327  Biso 1.000000     C
    C   1.0     0.873912     0.873957     0.278121  Biso 1.000000     C
    C   1.0     0.826819     0.827465     0.437648  Biso 1.000000     C
    C   1.0     0.625948     0.874046     0.222378  Biso 1.000000     C
    C   1.0     0.673213     0.826400     0.062692  Biso 1.000000     C
    C   1.0     0.626214     0.626469     0.278864  Biso 1.000000     C
    C   1.0     0.673501     0.674495     0.438087  Biso 1.000000     C
    C   1.0     0.221412     0.873917     0.626217  Biso 1.000000     C
    C   1.0     0.062144     0.827226     0.673788  Biso 1.000000     C
    C   1.0     0.277656     0.873925     0.874239  Biso 1.000000     C
    C   1.0     0.437462     0.826085     0.827208  Biso 1.000000     C
    C   1.0     0.221664     0.626281     0.874061  Biso 1.000000     C
    C   1.0     0.061966     0.674083     0.827235  Biso 1.000000     C
    C   1.0     0.277652     0.625747     0.625968  Biso 1.000000     C
    C   1.0     0.437316     0.672032     0.673143  Biso 1.000000     C
    C   1.0     0.722083     0.126069     0.125973  Biso 1.000000     C
    C   1.0     0.562355     0.173798     0.173044  Biso 1.000000     C
    C   1.0     0.778347     0.373814     0.126142  Biso 1.000000     C
    C   1.0     0.937982     0.326031     0.173186  Biso 1.000000     C
    C   1.0     0.722593     0.374462     0.374102  Biso 1.000000     C
    C   1.0     0.562850     0.328211     0.326859  Biso 1.000000     C
    C   1.0     0.778603     0.126060     0.373756  Biso 1.000000     C
    C   1.0     0.937922     0.172685     0.326297  Biso 1.000000     C
    C   1.0     0.125888     0.374316     0.777441  Biso 1.000000     C
    C   1.0     0.173222     0.327780     0.937037  Biso 1.000000     C
    C   1.0     0.373848     0.373708     0.721504  Biso 1.000000     C
    C   1.0     0.326632     0.325773     0.562116  Biso 1.000000     C
    C   1.0     0.374135     0.125873     0.777516  Biso 1.000000     C
    C   1.0     0.327020     0.173342     0.937290  Biso 1.000000     C
    C   1.0     0.126187     0.125998     0.721637  Biso 1.000000     C
    C   1.0     0.173437     0.172554     0.562199  Biso 1.000000     C
    C   1.0     0.374172     0.722065     0.373829  Biso 1.000000     C
    C   1.0     0.327927     0.562442     0.326123  Biso 1.000000     C
    C   1.0     0.373923     0.778293     0.126160  Biso 1.000000     C
    C   1.0     0.326642     0.938122     0.173314  Biso 1.000000     C
    C   1.0     0.126369     0.721294     0.125938  Biso 1.000000     C
    C   1.0     0.174510     0.561925     0.172375  Biso 1.000000     C
    C   1.0     0.125955     0.777651     0.373987  Biso 1.000000     C
    C   1.0     0.172950     0.936851     0.326804  Biso 1.000000     C
    N   1.0     0.588458     0.182100     0.807032  Biso 1.000000     N
    N   1.0     0.911380     0.317692     0.807630  Biso 1.000000     N
    N   1.0     0.911737     0.182584     0.692969  Biso 1.000000     N
    N   1.0     0.588136     0.317329     0.693449  Biso 1.000000     N
    N   1.0     0.807091     0.588118     0.182433  Biso 1.000000     N
    N   1.0     0.806758     0.911847     0.317774  Biso 1.000000     N
    N   1.0     0.692763     0.911588     0.182650  Biso 1.000000     N
    N   1.0     0.693422     0.588867     0.318393  Biso 1.000000     N
    N   1.0     0.181828     0.806987     0.588441  Biso 1.000000     N
    N   1.0     0.317369     0.806860     0.911822  Biso 1.000000     N
    N   1.0     0.182063     0.693562     0.911845  Biso 1.000000     N
    N   1.0     0.317394     0.692410     0.588322  Biso 1.000000     N
    N   1.0     0.682344     0.088479     0.192759  Biso 1.000000     N
    N   1.0     0.818047     0.411514     0.193116  Biso 1.000000     N
    N   1.0     0.682935     0.412244     0.307196  Biso 1.000000     N
    N   1.0     0.818097     0.088191     0.306523  Biso 1.000000     N
    N   1.0     0.088331     0.307623     0.817180  Biso 1.000000     N
    N   1.0     0.411598     0.306380     0.681978  Biso 1.000000     N
    N   1.0     0.411652     0.192868     0.817290  Biso 1.000000     N
    N   1.0     0.088394     0.192950     0.682035  Biso 1.000000     N
    N   1.0     0.307480     0.682285     0.411487  Biso 1.000000     N
    N   1.0     0.306809     0.817999     0.088500  Biso 1.000000     N
    N   1.0     0.193810     0.681925     0.088218  Biso 1.000000     N
    N   1.0     0.192843     0.817291     0.411726  Biso 1.000000     N
    N   1.0     0.411598     0.817985     0.193199  Biso 1.000000     N
    N   1.0     0.088808     0.681623     0.192748  Biso 1.000000     N
    N   1.0     0.088273     0.817156     0.306964  Biso 1.000000     N
    N   1.0     0.411955     0.682482     0.306596  Biso 1.000000     N
    N   1.0     0.192800     0.412031     0.817100  Biso 1.000000     N
    N   1.0     0.193369     0.088101     0.682053  Biso 1.000000     N
    N   1.0     0.307382     0.088255     0.817272  Biso 1.000000     N
    N   1.0     0.306753     0.411361     0.681853  Biso 1.000000     N
    N   1.0     0.818146     0.193046     0.411479  Biso 1.000000     N
    N   1.0     0.682396     0.193176     0.088415  Biso 1.000000     N
    N   1.0     0.817973     0.306501     0.088451  Biso 1.000000     N
    N   1.0     0.682786     0.307811     0.411670  Biso 1.000000     N
    N   1.0     0.317480     0.911420     0.807466  Biso 1.000000     N
    N   1.0     0.181887     0.588614     0.807117  Biso 1.000000     N
    N   1.0     0.317253     0.588007     0.692944  Biso 1.000000     N
    N   1.0     0.181971     0.911721     0.693521  Biso 1.000000     N
    N   1.0     0.911720     0.692505     0.182297  Biso 1.000000     N
    N   1.0     0.588487     0.693897     0.318275  Biso 1.000000     N
    N   1.0     0.588440     0.807033     0.182624  Biso 1.000000     N
    N   1.0     0.911717     0.806999     0.317712  Biso 1.000000     N
    N   1.0     0.692532     0.317531     0.588484  Biso 1.000000     N
    N   1.0     0.693142     0.182117     0.911701  Biso 1.000000     N
    N   1.0     0.806526     0.317406     0.912143  Biso 1.000000     N
    N   1.0     0.807169     0.182489     0.588193  Biso 1.000000     N
    O   1.0     0.600842     0.290742     0.899180  Biso 1.000000     O
    O   1.0     0.899187     0.209079     0.899042  Biso 1.000000     O
    O   1.0     0.898992     0.290730     0.600989  Biso 1.000000     O
    O   1.0     0.600990     0.209065     0.600807  Biso 1.000000     O
    O   1.0     0.899150     0.601017     0.290809  Biso 1.000000     O
    O   1.0     0.899025     0.898879     0.209454  Biso 1.000000     O
    O   1.0     0.600817     0.899301     0.291179  Biso 1.000000     O
    O   1.0     0.600899     0.600886     0.210318  Biso 1.000000     O
    O   1.0     0.290044     0.898878     0.600958  Biso 1.000000     O
    O   1.0     0.208799     0.899261     0.899262  Biso 1.000000     O
    O   1.0     0.290468     0.600928     0.899049  Biso 1.000000     O
    O   1.0     0.208857     0.600955     0.600860  Biso 1.000000     O
    O   1.0     0.790945     0.100772     0.100877  Biso 1.000000     O
    O   1.0     0.709584     0.399169     0.101037  Biso 1.000000     O
    O   1.0     0.791395     0.399183     0.399211  Biso 1.000000     O
    O   1.0     0.709969     0.101117     0.399027  Biso 1.000000     O
    O   1.0     0.100757     0.399170     0.708698  Biso 1.000000     O
    O   1.0     0.398999     0.399120     0.790168  Biso 1.000000     O
    O   1.0     0.399220     0.100696     0.708674  Biso 1.000000     O
    O   1.0     0.101033     0.101120     0.790311  Biso 1.000000     O
    O   1.0     0.398954     0.790803     0.399162  Biso 1.000000     O
    O   1.0     0.399197     0.709454     0.100922  Biso 1.000000     O
    O   1.0     0.100755     0.789917     0.100973  Biso 1.000000     O
    O   1.0     0.100952     0.709092     0.399063  Biso 1.000000     O
   Cu   1.0     0.499965     0.249717     0.749967  Biso 1.000000    Cu
   Cu   1.0    -0.000034     0.250200     0.749957  Biso 1.000000    Cu
   Cu   1.0     0.750328     0.500256     0.250262  Biso 1.000000    Cu
   Cu   1.0     0.749954     0.000085     0.249926  Biso 1.000000    Cu
   Cu   1.0     0.249896     0.749791     0.500078  Biso 1.000000    Cu
   Cu   1.0     0.250001     0.750099     0.000165  Biso 1.000000    Cu
   Cu   1.0     0.500094     0.750207     0.250037  Biso 1.000000    Cu
   Cu   1.0     0.000095     0.749551     0.249881  Biso 1.000000    Cu
   Cu   1.0     0.249672     0.500055     0.749708  Biso 1.000000    Cu
   Cu   1.0     0.250114    -0.000165     0.750011  Biso 1.000000    Cu
   Cu   1.0     0.750099     0.250118     0.499892  Biso 1.000000    Cu
   Cu   1.0     0.750022     0.249734     0.000189  Biso 1.000000    Cu
