#======================================================================

# CRYSTAL DATA

#----------------------------------------------------------------------

data_VESTA_phase_1


_pd_phase_name                         MOF
_cell_length_a                         16.56300
_cell_length_b                         16.56900
_cell_length_c                         16.57100
_cell_angle_alpha                      105.56400
_cell_angle_beta                       105.41300
_cell_angle_gamma                      105.36700
_symmetry_space_group_name_H-M         "P 1"
_symmetry_Int_Tables_number            1

loop_
_symmetry_equiv_pos_as_xyz
   "x, y, z"

loop_
   _atom_site_label
   _atom_site_occupancy
   _atom_site_fract_x
   _atom_site_fract_y
   _atom_site_fract_z
   _atom_site_adp_type
   _atom_site_B_iso_or_equiv
   _atom_site_type_symbol
    H   1.0     0.468018     0.909323     0.744303  Biso 1.000000     H
    H   1.0     0.370254     0.866883     0.765336  Biso 1.000000     H
    H   1.0     0.629776     0.234635     0.133166  Biso 1.000000     H
    H   1.0     0.532023     0.255737     0.090647  Biso 1.000000     H
    H   1.0     0.597692     0.787906     0.855296  Biso 1.000000     H
    H   1.0     0.612997     0.902965     0.903111  Biso 1.000000     H
    H   1.0     0.597709     0.855250     0.788048  Biso 1.000000     H
    H   1.0     0.446763     0.741158     0.673717  Biso 1.000000     H
    H   1.0     0.354200     0.707803     0.707696  Biso 1.000000     H
    H   1.0     0.446650     0.673645     0.741247  Biso 1.000000     H
    H   1.0     0.396333     0.293133     0.030320  Biso 1.000000     H
    H   1.0     0.401702     0.237476     0.925603  Biso 1.000000     H
    H   1.0     0.762545     0.598090     0.074198  Biso 1.000000     H
    H   1.0     0.706915     0.603292     0.969548  Biso 1.000000     H
    H   1.0     0.294334     0.226263     0.783549  Biso 1.000000     H
    H   1.0     0.344172     0.344011     0.812817  Biso 1.000000     H
    H   1.0     0.226409     0.294512     0.783670  Biso 1.000000     H
    H   1.0     0.233786     0.234257     0.987618  Biso 1.000000     H
    H   1.0     0.229205     0.161933     0.883662  Biso 1.000000     H
    H   1.0     0.161768     0.229433     0.883584  Biso 1.000000     H
    H   1.0     0.744476     0.468183     0.909709  Biso 1.000000     H
    H   1.0     0.765489     0.370334     0.866909  Biso 1.000000     H
    H   1.0     0.132818     0.629738     0.234660  Biso 1.000000     H
    H   1.0     0.090355     0.531970     0.255570  Biso 1.000000     H
    H   1.0     0.855517     0.597757     0.788413  Biso 1.000000     H
    H   1.0     0.903194     0.613167     0.903423  Biso 1.000000     H
    H   1.0     0.788183     0.597866     0.855827  Biso 1.000000     H
    H   1.0     0.674024     0.446812     0.741592  Biso 1.000000     H
    H   1.0     0.708090     0.354210     0.707986  Biso 1.000000     H
    H   1.0     0.741636     0.446634     0.673997  Biso 1.000000     H
    H   1.0     0.030126     0.395917     0.292716  Biso 1.000000     H
    H   1.0     0.925532     0.401351     0.237328  Biso 1.000000     H
    H   1.0     0.074370     0.762696     0.598468  Biso 1.000000     H
    H   1.0     0.969817     0.707318     0.603888  Biso 1.000000     H
    H   1.0     0.783529     0.294201     0.226316  Biso 1.000000     H
    H   1.0     0.812842     0.344207     0.344136  Biso 1.000000     H
    H   1.0     0.783603     0.226361     0.294441  Biso 1.000000     H
    H   1.0     0.987389     0.233252     0.233560  Biso 1.000000     H
    H   1.0     0.883503     0.228734     0.161504  Biso 1.000000     H
    H   1.0     0.883390     0.161382     0.228882  Biso 1.000000     H
    H   1.0     0.909725     0.744546     0.468141  Biso 1.000000     H
    H   1.0     0.867180     0.765406     0.370331  Biso 1.000000     H
    H   1.0     0.234513     0.132976     0.629694  Biso 1.000000     H
    H   1.0     0.255509     0.090158     0.531859  Biso 1.000000     H
    H   1.0     0.788213     0.855958     0.597824  Biso 1.000000     H
    H   1.0     0.903207     0.903612     0.613196  Biso 1.000000     H
    H   1.0     0.855663     0.788612     0.597810  Biso 1.000000     H
    H   1.0     0.741662     0.674220     0.446748  Biso 1.000000     H
    H   1.0     0.708209     0.708087     0.354187  Biso 1.000000     H
    H   1.0     0.674040     0.741856     0.446654  Biso 1.000000     H
    H   1.0     0.293010     0.030403     0.396527  Biso 1.000000     H
    H   1.0     0.237445     0.925783     0.401687  Biso 1.000000     H
    H   1.0     0.598242     0.074408     0.762589  Biso 1.000000     H
    H   1.0     0.603717     0.969754     0.706985  Biso 1.000000     H
    H   1.0     0.226452     0.783651     0.294162  Biso 1.000000     H
    H   1.0     0.344204     0.812858     0.343997  Biso 1.000000     H
    H   1.0     0.294615     0.783610     0.226200  Biso 1.000000     H
    H   1.0     0.233871     0.987596     0.233858  Biso 1.000000     H
    H   1.0     0.161792     0.883718     0.229180  Biso 1.000000     H
    H   1.0     0.229195     0.883508     0.161694  Biso 1.000000     H
    H   1.0     0.532001     0.090731     0.255709  Biso 1.000000     H
    H   1.0     0.629766     0.133172     0.234677  Biso 1.000000     H
    H   1.0     0.370249     0.765418     0.866847  Biso 1.000000     H
    H   1.0     0.468005     0.744319     0.909366  Biso 1.000000     H
    H   1.0     0.402332     0.212149     0.144712  Biso 1.000000     H
    H   1.0     0.387027     0.097090     0.096898  Biso 1.000000     H
    H   1.0     0.402312     0.144805     0.211959  Biso 1.000000     H
    H   1.0     0.553255     0.258897     0.326293  Biso 1.000000     H
    H   1.0     0.645821     0.292250     0.292319  Biso 1.000000     H
    H   1.0     0.553374     0.326411     0.258764  Biso 1.000000     H
    H   1.0     0.603687     0.706923     0.969695  Biso 1.000000     H
    H   1.0     0.598319     0.762581     0.074411  Biso 1.000000     H
    H   1.0     0.237479     0.401965     0.925810  Biso 1.000000     H
    H   1.0     0.293097     0.396759     0.030461  Biso 1.000000     H
    H   1.0     0.705689     0.773788     0.216466  Biso 1.000000     H
    H   1.0     0.655851     0.656037     0.187193  Biso 1.000000     H
    H   1.0     0.773613     0.705538     0.216339  Biso 1.000000     H
    H   1.0     0.766235     0.765801     0.012396  Biso 1.000000     H
    H   1.0     0.770818     0.838123     0.116354  Biso 1.000000     H
    H   1.0     0.838254     0.770620     0.116428  Biso 1.000000     H
    H   1.0     0.255541     0.531874     0.090304  Biso 1.000000     H
    H   1.0     0.234519     0.629716     0.133100  Biso 1.000000     H
    H   1.0     0.867196     0.370311     0.765356  Biso 1.000000     H
    H   1.0     0.909661     0.468079     0.744442  Biso 1.000000     H
    H   1.0     0.144504     0.402292     0.211594  Biso 1.000000     H
    H   1.0     0.096827     0.386884     0.096585  Biso 1.000000     H
    H   1.0     0.211839     0.402191     0.144182  Biso 1.000000     H
    H   1.0     0.325995     0.553243     0.258415  Biso 1.000000     H
    H   1.0     0.291925     0.645844     0.292026  Biso 1.000000     H
    H   1.0     0.258386     0.553416     0.326014  Biso 1.000000     H
    H   1.0     0.969894     0.604132     0.707294  Biso 1.000000     H
    H   1.0     0.074488     0.598698     0.762682  Biso 1.000000     H
    H   1.0     0.925643     0.237352     0.401539  Biso 1.000000     H
    H   1.0     0.030198     0.292729     0.396123  Biso 1.000000     H
    H   1.0     0.216491     0.705847     0.773689  Biso 1.000000     H
    H   1.0     0.187172     0.655839     0.655868  Biso 1.000000     H
    H   1.0     0.216414     0.773684     0.705561  Biso 1.000000     H
    H   1.0     0.012633     0.766800     0.766452  Biso 1.000000     H
    H   1.0     0.116520     0.771316     0.838506  Biso 1.000000     H
    H   1.0     0.116632     0.838667     0.771127  Biso 1.000000     H
    H   1.0     0.090292     0.255510     0.531859  Biso 1.000000     H
    H   1.0     0.132834     0.234648     0.629672  Biso 1.000000     H
    H   1.0     0.765510     0.867087     0.370320  Biso 1.000000     H
    H   1.0     0.744499     0.909893     0.468146  Biso 1.000000     H
    H   1.0     0.211806     0.144095     0.402181  Biso 1.000000     H
    H   1.0     0.096812     0.096441     0.386808  Biso 1.000000     H
    H   1.0     0.144355     0.211439     0.402192  Biso 1.000000     H
    H   1.0     0.258359     0.325833     0.553256  Biso 1.000000     H
    H   1.0     0.291807     0.291966     0.645817  Biso 1.000000     H
    H   1.0     0.325977     0.258194     0.553353  Biso 1.000000     H
    H   1.0     0.707010     0.969653     0.603480  Biso 1.000000     H
    H   1.0     0.762571     0.074276     0.598324  Biso 1.000000     H
    H   1.0     0.401776     0.925642     0.237421  Biso 1.000000     H
    H   1.0     0.396302     0.030297     0.293022  Biso 1.000000     H
    H   1.0     0.773570     0.216404     0.705856  Biso 1.000000     H
    H   1.0     0.655818     0.187201     0.656021  Biso 1.000000     H
    H   1.0     0.705405     0.216443     0.773816  Biso 1.000000     H
    H   1.0     0.766144     0.012452     0.766147  Biso 1.000000     H
    H   1.0     0.838225     0.116331     0.770830  Biso 1.000000     H
    H   1.0     0.770823     0.116539     0.838316  Biso 1.000000     H
    C   1.0     0.525188     0.122224     0.027836  Biso 1.000000     C
    C   1.0     0.512523     0.038244     0.038233  Biso 1.000000     C
    C   1.0     0.474858     0.972185     0.877788  Biso 1.000000     C
    C   1.0     0.444316     0.890647     0.795140  Biso 1.000000     C
    C   1.0     0.473816     0.814449     0.814472  Biso 1.000000     C
    C   1.0     0.555714     0.204883     0.109359  Biso 1.000000     C
    C   1.0     0.576374     0.842090     0.842184  Biso 1.000000     C
    C   1.0     0.427623     0.729384     0.729404  Biso 1.000000     C
    C   1.0     0.620725     0.526181     0.017310  Biso 1.000000     C
    C   1.0     0.537278     0.537256     0.007542  Biso 1.000000     C
    C   1.0     0.473721     0.379316     0.982745  Biso 1.000000     C
    C   1.0     0.394648     0.298608     0.964841  Biso 1.000000     C
    C   1.0     0.303251     0.303382     0.916165  Biso 1.000000     C
    C   1.0     0.701465     0.605152     0.035093  Biso 1.000000     C
    C   1.0     0.291469     0.291461     0.818131  Biso 1.000000     C
    C   1.0     0.227603     0.227858     0.918157  Biso 1.000000     C
    C   1.0     0.027663     0.525075     0.122182  Biso 1.000000     C
    C   1.0     0.038161     0.512497     0.038189  Biso 1.000000     C
    C   1.0     0.877852     0.474890     0.972304  Biso 1.000000     C
    C   1.0     0.795302     0.444420     0.890857  Biso 1.000000     C
    C   1.0     0.814702     0.473907     0.814732  Biso 1.000000     C
    C   1.0     0.109096     0.555647     0.204759  Biso 1.000000     C
    C   1.0     0.842344     0.576497     0.842563  Biso 1.000000     C
    C   1.0     0.729738     0.427656     0.729702  Biso 1.000000     C
    C   1.0     0.017339     0.620801     0.526389  Biso 1.000000     C
    C   1.0     0.007558     0.537360     0.537317  Biso 1.000000     C
    C   1.0     0.982667     0.473538     0.379219  Biso 1.000000     C
    C   1.0     0.964739     0.394337     0.298361  Biso 1.000000     C
    C   1.0     0.916055     0.302993     0.303081  Biso 1.000000     C
    C   1.0     0.035228     0.701693     0.605526  Biso 1.000000     C
    C   1.0     0.818091     0.291376     0.291428  Biso 1.000000     C
    C   1.0     0.917977     0.227180     0.227350  Biso 1.000000     C
    C   1.0     0.122145     0.027632     0.525092  Biso 1.000000     C
    C   1.0     0.038155     0.038170     0.512469  Biso 1.000000     C
    C   1.0     0.972361     0.877874     0.474951  Biso 1.000000     C
    C   1.0     0.890947     0.795343     0.444427  Biso 1.000000     C
    C   1.0     0.814746     0.814880     0.473912  Biso 1.000000     C
    C   1.0     0.204687     0.109040     0.555600  Biso 1.000000     C
    C   1.0     0.842407     0.842729     0.576509  Biso 1.000000     C
    C   1.0     0.729788     0.729886     0.427639  Biso 1.000000     C
    C   1.0     0.526281     0.017258     0.620715  Biso 1.000000     C
    C   1.0     0.537284     0.007552     0.537263  Biso 1.000000     C
    C   1.0     0.379257     0.982678     0.473731  Biso 1.000000     C
    C   1.0     0.298519     0.964907     0.394693  Biso 1.000000     C
    C   1.0     0.303275     0.916171     0.303204  Biso 1.000000     C
    C   1.0     0.605352     0.035187     0.701491  Biso 1.000000     C
    C   1.0     0.291570     0.818154     0.291310  Biso 1.000000     C
    C   1.0     0.227632     0.918146     0.227588  Biso 1.000000     C
    C   1.0     0.474846     0.877833     0.972178  Biso 1.000000     C
    C   1.0     0.487500     0.961811     0.961778  Biso 1.000000     C
    C   1.0     0.525169     0.027872     0.122224  Biso 1.000000     C
    C   1.0     0.555704     0.109407     0.204872  Biso 1.000000     C
    C   1.0     0.526207     0.185606     0.185540  Biso 1.000000     C
    C   1.0     0.444311     0.795171     0.890654  Biso 1.000000     C
    C   1.0     0.423649     0.157965     0.157825  Biso 1.000000     C
    C   1.0     0.572398     0.270671     0.270607  Biso 1.000000     C
    C   1.0     0.379296     0.473873     0.982693  Biso 1.000000     C
    C   1.0     0.462744     0.462799     0.992474  Biso 1.000000     C
    C   1.0     0.526303     0.620741     0.017274  Biso 1.000000     C
    C   1.0     0.605375     0.701450     0.035176  Biso 1.000000     C
    C   1.0     0.696772     0.696674     0.083849  Biso 1.000000     C
    C   1.0     0.298557     0.394905     0.964922  Biso 1.000000     C
    C   1.0     0.708554     0.708590     0.181881  Biso 1.000000     C
    C   1.0     0.772420     0.772198     0.081857  Biso 1.000000     C
    C   1.0     0.972350     0.474970     0.877832  Biso 1.000000     C
    C   1.0     0.961852     0.487549     0.961826  Biso 1.000000     C
    C   1.0     0.122163     0.525179     0.027713  Biso 1.000000     C
    C   1.0     0.204711     0.555629     0.109155  Biso 1.000000     C
    C   1.0     0.185317     0.526144     0.185283  Biso 1.000000     C
    C   1.0     0.890920     0.444402     0.795253  Biso 1.000000     C
    C   1.0     0.157676     0.423555     0.157446  Biso 1.000000     C
    C   1.0     0.270283     0.572398     0.270311  Biso 1.000000     C
    C   1.0     0.982678     0.379250     0.473621  Biso 1.000000     C
    C   1.0     0.992460     0.462690     0.462694  Biso 1.000000     C
    C   1.0     0.017348     0.526512     0.620792  Biso 1.000000     C
    C   1.0     0.035281     0.605715     0.701650  Biso 1.000000     C
    C   1.0     0.083964     0.697057     0.696927  Biso 1.000000     C
    C   1.0     0.964787     0.298356     0.394484  Biso 1.000000     C
    C   1.0     0.181926     0.708671     0.708577  Biso 1.000000     C
    C   1.0     0.082045     0.772870     0.772661  Biso 1.000000     C
    C   1.0     0.877866     0.972420     0.474891  Biso 1.000000     C
    C   1.0     0.961859     0.961885     0.487546  Biso 1.000000     C
    C   1.0     0.027656     0.122183     0.525069  Biso 1.000000     C
    C   1.0     0.109067     0.204713     0.555575  Biso 1.000000     C
    C   1.0     0.185268     0.185172     0.526093  Biso 1.000000     C
    C   1.0     0.795328     0.891016     0.444414  Biso 1.000000     C
    C   1.0     0.157611     0.157323     0.423495  Biso 1.000000     C
    C   1.0     0.270227     0.270165     0.572365  Biso 1.000000     C
    C   1.0     0.473737     0.982808     0.379298  Biso 1.000000     C
    C   1.0     0.462733     0.992501     0.462747  Biso 1.000000     C
    C   1.0     0.620761     0.017386     0.526283  Biso 1.000000     C
    C   1.0     0.701498     0.035147     0.605318  Biso 1.000000     C
    C   1.0     0.696742     0.083882     0.696808  Biso 1.000000     C
    C   1.0     0.394664     0.964863     0.298517  Biso 1.000000     C
    C   1.0     0.708451     0.181901     0.708706  Biso 1.000000     C
    C   1.0     0.772386     0.081903     0.772421  Biso 1.000000     C
    N   1.0     0.513517     0.129059     0.947115  Biso 1.000000     N
    N   1.0     0.486503     0.052857     0.870927  Biso 1.000000     N
    N   1.0     0.628719     0.446599     0.011390  Biso 1.000000     N
    N   1.0     0.553313     0.371250     0.988807  Biso 1.000000     N
    N   1.0     0.946989     0.513357     0.129115  Biso 1.000000     N
    N   1.0     0.870895     0.486418     0.053013  Biso 1.000000     N
    N   1.0     0.011330     0.628660     0.446792  Biso 1.000000     N
    N   1.0     0.988701     0.553122     0.371295  Biso 1.000000     N
    N   1.0     0.129096     0.946935     0.513506  Biso 1.000000     N
    N   1.0     0.053017     0.870878     0.486593  Biso 1.000000     N
    N   1.0     0.446662     0.011139     0.628696  Biso 1.000000     N
    N   1.0     0.371243     0.988574     0.553290  Biso 1.000000     N
    N   1.0     0.486513     0.870997     0.052897  Biso 1.000000     N
    N   1.0     0.513527     0.947200     0.129084  Biso 1.000000     N
    N   1.0     0.371302     0.553458     0.988627  Biso 1.000000     N
    N   1.0     0.446710     0.628808     0.011212  Biso 1.000000     N
    N   1.0     0.053026     0.486693     0.870903  Biso 1.000000     N
    N   1.0     0.129121     0.513634     0.947005  Biso 1.000000     N
    N   1.0     0.988684     0.371389     0.553219  Biso 1.000000     N
    N   1.0     0.011313     0.446927     0.628715  Biso 1.000000     N
    N   1.0     0.870918     0.053118     0.486495  Biso 1.000000     N
    N   1.0     0.946995     0.129175     0.513407  Biso 1.000000     N
    N   1.0     0.553358     0.988922     0.371318  Biso 1.000000     N
    N   1.0     0.628777     0.011494     0.446725  Biso 1.000000     N
   Cu   1.0     0.563647     0.250497     0.938189  Biso 1.000000    Cu
   Cu   1.0     0.749388     0.436290     0.062014  Biso 1.000000    Cu
   Cu   1.0     0.938000     0.563463     0.250775  Biso 1.000000    Cu
   Cu   1.0     0.061993     0.749172     0.436448  Biso 1.000000    Cu
   Cu   1.0     0.250641     0.937886     0.563581  Biso 1.000000    Cu
   Cu   1.0     0.436285     0.061738     0.749423  Biso 1.000000    Cu
   Cu   1.0     0.436373     0.749566     0.061839  Biso 1.000000    Cu
   Cu   1.0     0.250630     0.563760     0.938016  Biso 1.000000    Cu
   Cu   1.0     0.062016     0.436593     0.749239  Biso 1.000000    Cu
   Cu   1.0     0.938021     0.250879     0.563561  Biso 1.000000    Cu
   Cu   1.0     0.749386     0.062207     0.436457  Biso 1.000000    Cu
   Cu   1.0     0.563729     0.938316     0.250594  Biso 1.000000    Cu
    I   1.0     0.735876     0.264010     0.999918  Biso 1.000000     I
    I   1.0     0.499887     0.233732     0.766177  Biso 1.000000     I
    I   1.0     0.999934     0.735668     0.264224  Biso 1.000000     I
    I   1.0     0.766052     0.500077     0.234084  Biso 1.000000     I
    I   1.0     0.264109     0.000000     0.735879  Biso 1.000000     I
    I   1.0     0.233969     0.765822     0.499793  Biso 1.000000     I
    I   1.0     0.264153     0.736052     0.000109  Biso 1.000000     I
    I   1.0     0.500146     0.766340     0.233846  Biso 1.000000     I
    I   1.0     0.000077     0.264379     0.735776  Biso 1.000000     I
    I   1.0     0.233954     0.499970     0.765932  Biso 1.000000     I
    I   1.0     0.735916     0.000060     0.264129  Biso 1.000000     I
    I   1.0     0.766048     0.234245     0.500228  Biso 1.000000     I
