#======================================================================

# CRYSTAL DATA

#----------------------------------------------------------------------

data_VESTA_phase_1


_pd_phase_name                         MOF
_cell_length_a                         22.21800
_cell_length_b                         14.32100
_cell_length_c                         18.37300
_cell_angle_alpha                      74.40900
_cell_angle_beta                       72.49300
_cell_angle_gamma                      67.10300
_symmetry_space_group_name_H-M         "P 1"
_symmetry_Int_Tables_number            1

loop_
_symmetry_equiv_pos_as_xyz
   "x, y, z"

loop_
   _atom_site_label
   _atom_site_occupancy
   _atom_site_fract_x
   _atom_site_fract_y
   _atom_site_fract_z
   _atom_site_adp_type
   _atom_site_B_iso_or_equiv
   _atom_site_type_symbol
    H   1.0     0.482561     0.761254     0.985588  Biso 1.000000     H
    H   1.0     0.982578     0.761248     0.985582  Biso 1.000000     H
    H   1.0     0.372561     0.560005     0.036397  Biso 1.000000     H
    H   1.0     0.872584     0.559988     0.036404  Biso 1.000000     H
    H   1.0     0.448545     0.502835     0.146705  Biso 1.000000     H
    H   1.0     0.948567     0.502835     0.146711  Biso 1.000000     H
    H   1.0     0.051264     0.554216     0.143171  Biso 1.000000     H
    H   1.0     0.551259     0.554205     0.143175  Biso 1.000000     H
    H   1.0     0.059943     0.667969     0.079573  Biso 1.000000     H
    H   1.0     0.559946     0.667953     0.079576  Biso 1.000000     H
    H   1.0     0.000024     0.558802     0.277344  Biso 1.000000     H
    H   1.0     0.500033     0.558796     0.277347  Biso 1.000000     H
    H   1.0     0.470785     0.844488     0.114808  Biso 1.000000     H
    H   1.0     0.970806     0.844496     0.114806  Biso 1.000000     H
    H   1.0     0.239475     0.778096     0.034975  Biso 1.000000     H
    H   1.0     0.739494     0.778030     0.034978  Biso 1.000000     H
    H   1.0     0.289212    -0.002166     0.845524  Biso 1.000000     H
    H   1.0     0.789210    -0.002181     0.845558  Biso 1.000000     H
    H   1.0     0.159873     0.087633     0.928444  Biso 1.000000     H
    H   1.0     0.659869     0.087582     0.928490  Biso 1.000000     H
    H   1.0     0.126650     0.875850     0.099658  Biso 1.000000     H
    H   1.0     0.626656     0.875744     0.099659  Biso 1.000000     H
    H   1.0     0.113319     0.000000     0.090116  Biso 1.000000     H
    H   1.0     0.613331     0.000000     0.090168  Biso 1.000000     H
    H   1.0     0.107031     0.876354     0.940361  Biso 1.000000     H
    H   1.0     0.607024     0.876314     0.940373  Biso 1.000000     H
    H   1.0     0.495036     0.082312     0.105735  Biso 1.000000     H
    H   1.0     0.995029     0.082345     0.105723  Biso 1.000000     H
    H   1.0     0.355325     0.739203     0.514842  Biso 1.000000     H
    H   1.0     0.855333     0.739210     0.514847  Biso 1.000000     H
    H   1.0     0.170115     0.940372     0.462728  Biso 1.000000     H
    H   1.0     0.670121     0.940351     0.462726  Biso 1.000000     H
    H   1.0     0.272658     0.997515     0.353165  Biso 1.000000     H
    H   1.0     0.772660     0.997500     0.353160  Biso 1.000000     H
    H   1.0     0.399231     0.946060     0.357658  Biso 1.000000     H
    H   1.0     0.899232     0.946066     0.357658  Biso 1.000000     H
    H   1.0     0.432957     0.832277     0.421469  Biso 1.000000     H
    H   1.0     0.932961     0.832284     0.421468  Biso 1.000000     H
    H   1.0     0.418044     0.941471     0.223409  Biso 1.000000     H
    H   1.0     0.918058     0.941477     0.223409  Biso 1.000000     H
    H   1.0     0.449663     0.655781     0.385951  Biso 1.000000     H
    H   1.0     0.949664     0.655785     0.385949  Biso 1.000000     H
    H   1.0     0.145548     0.722162     0.464216  Biso 1.000000     H
    H   1.0     0.645559     0.722153     0.464220  Biso 1.000000     H
    H   1.0     0.210927     0.503030     0.654090  Biso 1.000000     H
    H   1.0     0.710932     0.503027     0.654099  Biso 1.000000     H
    H   1.0     0.168082     0.412820     0.571249  Biso 1.000000     H
    H   1.0     0.668090     0.412814     0.571257  Biso 1.000000     H
    H   1.0     0.113943     0.624041     0.399736  Biso 1.000000     H
    H   1.0     0.613958     0.624030     0.399738  Biso 1.000000     H
    H   1.0     0.162232     0.491670     0.409541  Biso 1.000000     H
    H   1.0     0.662244     0.491657     0.409549  Biso 1.000000     H
    H   1.0     0.015405     0.624140     0.559076  Biso 1.000000     H
    H   1.0     0.515416     0.624135     0.559079  Biso 1.000000     H
    H   1.0     0.088837     0.417244     0.394386  Biso 1.000000     H
    H   1.0     0.588846     0.417241     0.394388  Biso 1.000000     H
    H   1.0     0.017421     0.238779     0.014399  Biso 1.000000     H
    H   1.0     0.517436     0.238772     0.014393  Biso 1.000000     H
    H   1.0     0.127414     0.440041     0.963576  Biso 1.000000     H
    H   1.0     0.627438     0.440021     0.963579  Biso 1.000000     H
    H   1.0     0.051427     0.497198     0.853273  Biso 1.000000     H
    H   1.0     0.551451     0.497191     0.853274  Biso 1.000000     H
    H   1.0     0.448736     0.445819     0.856808  Biso 1.000000     H
    H   1.0     0.948731     0.445812     0.856813  Biso 1.000000     H
    H   1.0     0.440051     0.332069     0.920406  Biso 1.000000     H
    H   1.0     0.940054     0.332057     0.920411  Biso 1.000000     H
    H   1.0     0.499962     0.441230     0.722635  Biso 1.000000     H
    H   1.0     0.999970     0.441227     0.722640  Biso 1.000000     H
    H   1.0     0.029196     0.155533     0.885177  Biso 1.000000     H
    H   1.0     0.529215     0.155537     0.885173  Biso 1.000000     H
    H   1.0     0.260508     0.222000     0.965002  Biso 1.000000     H
    H   1.0     0.760525     0.221936     0.965003  Biso 1.000000     H
    H   1.0     0.210793     0.000000     0.154419  Biso 1.000000     H
    H   1.0     0.710792     0.000000     0.154452  Biso 1.000000     H
    H   1.0     0.340134     0.912447     0.071487  Biso 1.000000     H
    H   1.0     0.840132     0.912400     0.071530  Biso 1.000000     H
    H   1.0     0.373347     0.124288     0.900321  Biso 1.000000     H
    H   1.0     0.873351     0.124188     0.900320  Biso 1.000000     H
    H   1.0     0.386671    -0.008058     0.909809  Biso 1.000000     H
    H   1.0     0.886683    -0.008168     0.909858  Biso 1.000000     H
    H   1.0     0.392978     0.123715     0.059607  Biso 1.000000     H
    H   1.0     0.892971     0.123680     0.059616  Biso 1.000000     H
    H   1.0     0.004972     0.917689     0.894254  Biso 1.000000     H
    H   1.0     0.504966     0.917717     0.894245  Biso 1.000000     H
    H   1.0     0.144672     0.260818     0.485137  Biso 1.000000     H
    H   1.0     0.644681     0.260822     0.485139  Biso 1.000000     H
    H   1.0     0.329882     0.059668     0.537259  Biso 1.000000     H
    H   1.0     0.829889     0.059650     0.537256  Biso 1.000000     H
    H   1.0     0.227341     0.002525     0.646825  Biso 1.000000     H
    H   1.0     0.727345     0.002510     0.646818  Biso 1.000000     H
    H   1.0     0.100769     0.053965     0.642325  Biso 1.000000     H
    H   1.0     0.600772     0.053966     0.642323  Biso 1.000000     H
    H   1.0     0.067042     0.167747     0.578514  Biso 1.000000     H
    H   1.0     0.567047     0.167750     0.578511  Biso 1.000000     H
    H   1.0     0.081947     0.058552     0.776574  Biso 1.000000     H
    H   1.0     0.581960     0.058555     0.776571  Biso 1.000000     H
    H   1.0     0.050333     0.344245     0.614035  Biso 1.000000     H
    H   1.0     0.550335     0.344246     0.614031  Biso 1.000000     H
    H   1.0     0.354443     0.277873     0.535763  Biso 1.000000     H
    H   1.0     0.854454     0.277865     0.535765  Biso 1.000000     H
    H   1.0     0.289070     0.496992     0.345881  Biso 1.000000     H
    H   1.0     0.789075     0.496990     0.345888  Biso 1.000000     H
    H   1.0     0.331909     0.587212     0.428722  Biso 1.000000     H
    H   1.0     0.831916     0.587207     0.428729  Biso 1.000000     H
    H   1.0     0.386039     0.376003     0.600245  Biso 1.000000     H
    H   1.0     0.886053     0.375993     0.600246  Biso 1.000000     H
    H   1.0     0.337754     0.508376     0.590429  Biso 1.000000     H
    H   1.0     0.837765     0.508364     0.590435  Biso 1.000000     H
    H   1.0     0.484583     0.375895     0.440901  Biso 1.000000     H
    H   1.0     0.984593     0.375890     0.440903  Biso 1.000000     H
    H   1.0     0.411153     0.582788     0.605593  Biso 1.000000     H
    H   1.0     0.911161     0.582786     0.605594  Biso 1.000000     H
    C   1.0     0.460947     0.701204     0.014318  Biso 1.000000     C
    C   1.0     0.960965     0.701197     0.014315  Biso 1.000000     C
    C   1.0     0.405600     0.595086     0.042730  Biso 1.000000     C
    C   1.0     0.905621     0.595075     0.042734  Biso 1.000000     C
    C   1.0     0.442870     0.565495     0.097728  Biso 1.000000     C
    C   1.0     0.942891     0.565491     0.097732  Biso 1.000000     C
    C   1.0     0.023587     0.634640     0.121961  Biso 1.000000     C
    C   1.0     0.523586     0.634631     0.121963  Biso 1.000000     C
    C   1.0     0.489093     0.694516     0.188321  Biso 1.000000     C
    C   1.0     0.989107     0.694523     0.188319  Biso 1.000000     C
    C   1.0     0.482108     0.642797     0.265267  Biso 1.000000     C
    C   1.0     0.982117     0.642803     0.265264  Biso 1.000000     C
    C   1.0     0.465414     0.802425     0.174200  Biso 1.000000     C
    C   1.0     0.965431     0.802432     0.174198  Biso 1.000000     C
    C   1.0     0.236662     0.849172     0.993936  Biso 1.000000     C
    C   1.0     0.736676     0.849115     0.993950  Biso 1.000000     C
    C   1.0     0.259884     0.965973     0.897837  Biso 1.000000     C
    C   1.0     0.759887     0.965942     0.897867  Biso 1.000000     C
    C   1.0     0.195962     0.011022     0.937539  Biso 1.000000     C
    C   1.0     0.695963     0.010973     0.937574  Biso 1.000000     C
    C   1.0     0.119671     0.948809     0.058290  Biso 1.000000     C
    C   1.0     0.619679     0.948723     0.058315  Biso 1.000000     C
    C   1.0     0.058279     0.976027     0.026756  Biso 1.000000     C
    C   1.0     0.558287     0.975984     0.026770  Biso 1.000000     C
    C   1.0     0.060221     0.930075     0.967334  Biso 1.000000     C
    C   1.0     0.560221     0.930051     0.967341  Biso 1.000000     C
    C   1.0     0.497586     0.046090     0.059098  Biso 1.000000     C
    C   1.0     0.997586     0.046111     0.059090  Biso 1.000000     C
    C   1.0     0.318068     0.799247     0.485852  Biso 1.000000     C
    C   1.0     0.818075     0.799246     0.485855  Biso 1.000000     C
    C   1.0     0.223866     0.905315     0.456779  Biso 1.000000     C
    C   1.0     0.723872     0.905300     0.456778  Biso 1.000000     C
    C   1.0     0.273837     0.934893     0.402149  Biso 1.000000     C
    C   1.0     0.773841     0.934881     0.402146  Biso 1.000000     C
    C   1.0     0.401252     0.865657     0.378786  Biso 1.000000     C
    C   1.0     0.901256     0.865661     0.378786  Biso 1.000000     C
    C   1.0     0.430060     0.805760     0.312423  Biso 1.000000     C
    C   1.0     0.930067     0.805765     0.312422  Biso 1.000000     C
    C   1.0     0.436029     0.857477     0.235476  Biso 1.000000     C
    C   1.0     0.936042     0.857483     0.235475  Biso 1.000000     C
    C   1.0     0.453212     0.697848     0.326548  Biso 1.000000     C
    C   1.0     0.953217     0.697853     0.326546  Biso 1.000000     C
    C   1.0     0.157918     0.651198     0.505377  Biso 1.000000     C
    C   1.0     0.657928     0.651191     0.505382  Biso 1.000000     C
    C   1.0     0.191742     0.534694     0.601703  Biso 1.000000     C
    C   1.0     0.691749     0.534689     0.601711  Biso 1.000000     C
    C   1.0     0.170276     0.489447     0.562041  Biso 1.000000     C
    C   1.0     0.670284     0.489441     0.562048  Biso 1.000000     C
    C   1.0     0.122972     0.551210     0.441243  Biso 1.000000     C
    C   1.0     0.622984     0.551200     0.441248  Biso 1.000000     C
    C   1.0     0.059547     0.524019     0.472980  Biso 1.000000     C
    C   1.0     0.559557     0.524014     0.472983  Biso 1.000000     C
    C   1.0     0.008923     0.570221     0.532338  Biso 1.000000     C
    C   1.0     0.508933     0.570217     0.532339  Biso 1.000000     C
    C   1.0     0.050054     0.453665     0.440958  Biso 1.000000     C
    C   1.0     0.550063     0.453663     0.440959  Biso 1.000000     C
    C   1.0     0.039033     0.298830     0.985666  Biso 1.000000     C
    C   1.0     0.539051     0.298822     0.985662  Biso 1.000000     C
    C   1.0     0.094376     0.404955     0.957247  Biso 1.000000     C
    C   1.0     0.594398     0.404939     0.957247  Biso 1.000000     C
    C   1.0     0.057104     0.434540     0.902251  Biso 1.000000     C
    C   1.0     0.557126     0.434532     0.902251  Biso 1.000000     C
    C   1.0     0.476410     0.365393     0.878019  Biso 1.000000     C
    C   1.0     0.976409     0.365388     0.878023  Biso 1.000000     C
    C   1.0     0.010890     0.305506     0.811665  Biso 1.000000     C
    C   1.0     0.510904     0.305510     0.811661  Biso 1.000000     C
    C   1.0     0.017879     0.357226     0.734720  Biso 1.000000     C
    C   1.0     0.517889     0.357229     0.734715  Biso 1.000000     C
    C   1.0     0.034570     0.197597     0.825785  Biso 1.000000     C
    C   1.0     0.534586     0.197601     0.825782  Biso 1.000000     C
    C   1.0     0.263327     0.150914     0.006029  Biso 1.000000     C
    C   1.0     0.763339     0.150860     0.006041  Biso 1.000000     C
    C   1.0     0.240116     0.034085     0.102110  Biso 1.000000     C
    C   1.0     0.740119     0.034056     0.102138  Biso 1.000000     C
    C   1.0     0.304040     0.989055     0.062403  Biso 1.000000     C
    C   1.0     0.804042     0.989010     0.062436  Biso 1.000000     C
    C   1.0     0.380324     0.051308     0.941664  Biso 1.000000     C
    C   1.0     0.880332     0.051228     0.941686  Biso 1.000000     C
    C   1.0     0.441715     0.024046     0.973210  Biso 1.000000     C
    C   1.0     0.941723     0.024008     0.973221  Biso 1.000000     C
    C   1.0     0.439782     0.069978     0.032638  Biso 1.000000     C
    C   1.0     0.939781     0.069959     0.032643  Biso 1.000000     C
    C   1.0     0.002416     0.953924     0.940887  Biso 1.000000     C
    C   1.0     0.502416     0.953939     0.940882  Biso 1.000000     C
    C   1.0     0.181929     0.200779     0.514129  Biso 1.000000     C
    C   1.0     0.681937     0.200777     0.514129  Biso 1.000000     C
    C   1.0     0.276132     0.094722     0.543206  Biso 1.000000     C
    C   1.0     0.776138     0.094709     0.543203  Biso 1.000000     C
    C   1.0     0.226162     0.065143     0.597839  Biso 1.000000     C
    C   1.0     0.726167     0.065131     0.597834  Biso 1.000000     C
    C   1.0     0.098746     0.134369     0.621197  Biso 1.000000     C
    C   1.0     0.598751     0.134369     0.621194  Biso 1.000000     C
    C   1.0     0.069934     0.194265     0.687561  Biso 1.000000     C
    C   1.0     0.569942     0.194266     0.687558  Biso 1.000000     C
    C   1.0     0.063961     0.142546     0.764508  Biso 1.000000     C
    C   1.0     0.563973     0.142549     0.764505  Biso 1.000000     C
    C   1.0     0.046781     0.302177     0.673437  Biso 1.000000     C
    C   1.0     0.546787     0.302178     0.673433  Biso 1.000000     C
    C   1.0     0.342074     0.348834     0.494599  Biso 1.000000     C
    C   1.0     0.842084     0.348828     0.494603  Biso 1.000000     C
    C   1.0     0.308254     0.465332     0.398269  Biso 1.000000     C
    C   1.0     0.808260     0.465329     0.398275  Biso 1.000000     C
    C   1.0     0.329716     0.510583     0.437931  Biso 1.000000     C
    C   1.0     0.829724     0.510578     0.437938  Biso 1.000000     C
    C   1.0     0.377014     0.448830     0.558732  Biso 1.000000     C
    C   1.0     0.877025     0.448822     0.558736  Biso 1.000000     C
    C   1.0     0.440442     0.476016     0.526998  Biso 1.000000     C
    C   1.0     0.940452     0.476012     0.527000  Biso 1.000000     C
    C   1.0     0.491066     0.429812     0.467641  Biso 1.000000     C
    C   1.0     0.991075     0.429810     0.467642  Biso 1.000000     C
    C   1.0     0.449936     0.546366     0.559022  Biso 1.000000     C
    C   1.0     0.949944     0.546365     0.559022  Biso 1.000000     C
    N   1.0     0.417074     0.680048     0.990833  Biso 1.000000     N
    N   1.0     0.917094     0.680035     0.990833  Biso 1.000000     N
    N   1.0     0.477825     0.633498     0.078951  Biso 1.000000     N
    N   1.0     0.977844     0.633498     0.078950  Biso 1.000000     N
    N   1.0     0.285052     0.865059     0.933667  Biso 1.000000     N
    N   1.0     0.785061     0.865023     0.933683  Biso 1.000000     N
    N   1.0     0.181654     0.935918    -0.001509  Biso 1.000000     N
    N   1.0     0.681662     0.935853    -0.001485  Biso 1.000000     N
    N   1.0     0.251883     0.820365     0.508847  Biso 1.000000     N
    N   1.0     0.751891     0.820358     0.508849  Biso 1.000000     N
    N   1.0     0.333408     0.866860     0.421300  Biso 1.000000     N
    N   1.0     0.833413     0.866857     0.421299  Biso 1.000000     N
    N   1.0     0.184153     0.635540     0.565719  Biso 1.000000     N
    N   1.0     0.684161     0.635534     0.565726  Biso 1.000000     N
    N   1.0     0.148733     0.564354     0.500937  Biso 1.000000     N
    N   1.0     0.648743     0.564346     0.500943  Biso 1.000000     N
    N   1.0     0.082906     0.319993     0.009147  Biso 1.000000     N
    N   1.0     0.582924     0.319978     0.009145  Biso 1.000000     N
    N   1.0     0.022151     0.366533     0.921034  Biso 1.000000     N
    N   1.0     0.522170     0.366529     0.921031  Biso 1.000000     N
    N   1.0     0.214941     0.135004     0.066295  Biso 1.000000     N
    N   1.0     0.714950     0.134970     0.066310  Biso 1.000000     N
    N   1.0     0.318340     0.064176     0.000000  Biso 1.000000     N
    N   1.0     0.818348     0.064116     0.000000  Biso 1.000000     N
    N   1.0     0.248114     0.179665     0.491134  Biso 1.000000     N
    N   1.0     0.748122     0.179658     0.491135  Biso 1.000000     N
    N   1.0     0.166590     0.133171     0.578685  Biso 1.000000     N
    N   1.0     0.666596     0.133166     0.578682  Biso 1.000000     N
    N   1.0     0.315843     0.364487     0.434255  Biso 1.000000     N
    N   1.0     0.815850     0.364483     0.434260  Biso 1.000000     N
    N   1.0     0.351258     0.435681     0.499038  Biso 1.000000     N
    N   1.0     0.851267     0.435674     0.499042  Biso 1.000000     N
    S   1.0     0.199092     0.866143     0.793597  Biso 1.000000     S
    S   1.0     0.699103     0.866131     0.793605  Biso 1.000000     S
    S   1.0     0.365732     0.650085     0.834419  Biso 1.000000     S
    S   1.0     0.865746     0.650068     0.834422  Biso 1.000000     S
    S   1.0     0.265357     0.647139     0.695724  Biso 1.000000     S
    S   1.0     0.765364     0.647129     0.695731  Biso 1.000000     S
    S   1.0     0.111798     0.678580     0.850111  Biso 1.000000     S
    S   1.0     0.611803     0.678578     0.850116  Biso 1.000000     S
    S   1.0     0.029054     0.634250     0.705954  Biso 1.000000     S
    S   1.0     0.529059     0.634254     0.705956  Biso 1.000000     S
    S   1.0     0.107564     0.850505     0.665105  Biso 1.000000     S
    S   1.0     0.607575     0.850502     0.665108  Biso 1.000000     S
    S   1.0     0.436789     0.853410     0.803714  Biso 1.000000     S
    S   1.0     0.936797     0.853401     0.803715  Biso 1.000000     S
    S   1.0     0.375877     0.821809     0.649324  Biso 1.000000     S
    S   1.0     0.875884     0.821796     0.649328  Biso 1.000000     S
    S   1.0     0.300895     0.133900     0.206373  Biso 1.000000     S
    S   1.0     0.800907     0.133890     0.206378  Biso 1.000000     S
    S   1.0     0.134252     0.349965     0.165553  Biso 1.000000     S
    S   1.0     0.634266     0.349948     0.165554  Biso 1.000000     S
    S   1.0     0.234637     0.352897     0.304253  Biso 1.000000     S
    S   1.0     0.734644     0.352887     0.304258  Biso 1.000000     S
    S   1.0     0.388196     0.321451     0.149864  Biso 1.000000     S
    S   1.0     0.888201     0.321451     0.149868  Biso 1.000000     S
    S   1.0     0.470940     0.365773     0.294021  Biso 1.000000     S
    S   1.0     0.970944     0.365779     0.294022  Biso 1.000000     S
    S   1.0     0.392427     0.149519     0.334869  Biso 1.000000     S
    S   1.0     0.892438     0.149518     0.334871  Biso 1.000000     S
    S   1.0     0.063205     0.146627     0.196262  Biso 1.000000     S
    S   1.0     0.563212     0.146618     0.196263  Biso 1.000000     S
    S   1.0     0.124116     0.178239     0.350647  Biso 1.000000     S
    S   1.0     0.624125     0.178225     0.350649  Biso 1.000000     S
   Cu   1.0     0.204631     0.740928     0.602253  Biso 1.000000    Cu
   Cu   1.0     0.704641     0.740921     0.602258  Biso 1.000000    Cu
   Cu   1.0     0.301233     0.749043     0.740988  Biso 1.000000    Cu
   Cu   1.0     0.801243     0.749026     0.740996  Biso 1.000000    Cu
   Cu   1.0     0.376641     0.759680     0.897257  Biso 1.000000    Cu
   Cu   1.0     0.876654     0.759664     0.897261  Biso 1.000000    Cu
   Cu   1.0     0.046257     0.751482     0.758469  Biso 1.000000    Cu
   Cu   1.0     0.546264     0.751484     0.758471  Biso 1.000000    Cu
   Cu   1.0     0.295365     0.259099     0.397723  Biso 1.000000    Cu
   Cu   1.0     0.795374     0.259094     0.397727  Biso 1.000000    Cu
   Cu   1.0     0.198755     0.251013     0.258976  Biso 1.000000    Cu
   Cu   1.0     0.698766     0.250997     0.258982  Biso 1.000000    Cu
   Cu   1.0     0.123350     0.240362     0.102716  Biso 1.000000    Cu
   Cu   1.0     0.623362     0.240346     0.102717  Biso 1.000000    Cu
   Cu   1.0     0.453737     0.248540     0.241508  Biso 1.000000    Cu
   Cu   1.0     0.953744     0.248544     0.241509  Biso 1.000000    Cu
    W   1.0     0.427416     0.739935     0.746130  Biso 1.000000     W
    W   1.0     0.927427     0.739923     0.746132  Biso 1.000000     W
    W   1.0     0.170418     0.760549     0.753366  Biso 1.000000     W
    W   1.0     0.670427     0.760543     0.753371  Biso 1.000000     W
    W   1.0     0.072573     0.260108     0.253844  Biso 1.000000     W
    W   1.0     0.572584     0.260096     0.253844  Biso 1.000000     W
    W   1.0     0.329573     0.239484     0.246609  Biso 1.000000     W
    W   1.0     0.829582     0.239479     0.246613  Biso 1.000000     W
