#======================================================================

# CRYSTAL DATA

#----------------------------------------------------------------------

data_VESTA_phase_1


_pd_phase_name                         MOF
_cell_length_a                         12.33300
_cell_length_b                         13.79300
_cell_length_c                         17.56800
_cell_angle_alpha                      90.00800
_cell_angle_beta                       93.55400
_cell_angle_gamma                      89.97100
_symmetry_space_group_name_H-M         "P 1"
_symmetry_Int_Tables_number            1

loop_
_symmetry_equiv_pos_as_xyz
   "x, y, z"

loop_
   _atom_site_label
   _atom_site_occupancy
   _atom_site_fract_x
   _atom_site_fract_y
   _atom_site_fract_z
   _atom_site_adp_type
   _atom_site_B_iso_or_equiv
   _atom_site_type_symbol
    H   1.0     0.465564     0.696678     0.842061  Biso 1.000000     H
    H   1.0     0.277353     0.389187     0.023269  Biso 1.000000     H
    H   1.0     0.531142     0.291046     0.708058  Biso 1.000000     H
    H   1.0     0.533795     0.226795     0.574925  Biso 1.000000     H
    H   1.0     0.351916     0.475617     0.491730  Biso 1.000000     H
    H   1.0     0.350180     0.539560     0.624505  Biso 1.000000     H
    H   1.0     0.235454     0.287483     0.469642  Biso 1.000000     H
    H   1.0     0.091831     0.312565     0.364436  Biso 1.000000     H
    H   1.0     0.336995     0.390997     0.212388  Biso 1.000000     H
    H   1.0     0.481402     0.363215     0.316204  Biso 1.000000     H
    H   1.0     0.259441     0.579709     0.795411  Biso 1.000000     H
    H   1.0     0.120285     0.612183     0.801438  Biso 1.000000     H
    H   1.0     0.527510     0.729217     0.137912  Biso 1.000000     H
    H   1.0     0.501490     0.838495     0.091637  Biso 1.000000     H
    H   1.0     0.034332     0.196674     0.157956  Biso 1.000000     H
    H   1.0     0.222634     0.889539     0.976577  Biso 1.000000     H
    H   1.0     0.969254     0.790830     0.291866  Biso 1.000000     H
    H   1.0     0.966610     0.726608     0.424993  Biso 1.000000     H
    H   1.0     0.147918     0.975592     0.508270  Biso 1.000000     H
    H   1.0     0.149661     0.039471     0.375499  Biso 1.000000     H
    H   1.0     0.264611     0.787258     0.530365  Biso 1.000000     H
    H   1.0     0.408211     0.812368     0.635559  Biso 1.000000     H
    H   1.0     0.163007     0.891145     0.787556  Biso 1.000000     H
    H   1.0     0.018622     0.863344     0.683749  Biso 1.000000     H
    H   1.0     0.240519     0.079579     0.204719  Biso 1.000000     H
    H   1.0     0.379647     0.112072     0.198684  Biso 1.000000     H
    H   1.0     0.972269     0.229169     0.862113  Biso 1.000000     H
    H   1.0     0.998358     0.338423     0.908395  Biso 1.000000     H
    H   1.0     0.534388     0.303346     0.157926  Biso 1.000000     H
    H   1.0     0.722599     0.610836     0.976716  Biso 1.000000     H
    H   1.0     0.468809     0.708976     0.291929  Biso 1.000000     H
    H   1.0     0.466154     0.773226     0.425062  Biso 1.000000     H
    H   1.0     0.648042     0.524409     0.508256  Biso 1.000000     H
    H   1.0     0.649778     0.460467     0.375482  Biso 1.000000     H
    H   1.0     0.764499     0.712540     0.530344  Biso 1.000000     H
    H   1.0     0.908122     0.687459     0.635550  Biso 1.000000     H
    H   1.0     0.662960     0.609026     0.787598  Biso 1.000000     H
    H   1.0     0.518553     0.636809     0.683783  Biso 1.000000     H
    H   1.0     0.740512     0.420315     0.204575  Biso 1.000000     H
    H   1.0     0.879668     0.387842     0.198550  Biso 1.000000     H
    H   1.0     0.472441     0.270806     0.862075  Biso 1.000000     H
    H   1.0     0.498460     0.161528     0.908350  Biso 1.000000     H
    H   1.0     0.965619     0.803349     0.842033  Biso 1.000000     H
    H   1.0     0.777319     0.110485     0.023410  Biso 1.000000     H
    H   1.0     0.030705     0.209189     0.708121  Biso 1.000000     H
    H   1.0     0.033349     0.273412     0.574994  Biso 1.000000     H
    H   1.0     0.852028     0.024434     0.491718  Biso 1.000000     H
    H   1.0     0.850287     0.960554     0.624488  Biso 1.000000     H
    H   1.0     0.735341     0.212770     0.469622  Biso 1.000000     H
    H   1.0     0.591741     0.187659     0.364428  Biso 1.000000     H
    H   1.0     0.836946     0.108876     0.212432  Biso 1.000000     H
    H   1.0     0.981331     0.136676     0.316239  Biso 1.000000     H
    H   1.0     0.759433     0.920444     0.795268  Biso 1.000000     H
    H   1.0     0.620306     0.887951     0.801304  Biso 1.000000     H
    H   1.0     0.027689     0.770854     0.137874  Biso 1.000000     H
    H   1.0     0.001601     0.661600     0.091592  Biso 1.000000     H
    C   1.0     0.481745     0.688828     0.903132  Biso 1.000000     C
    C   1.0     0.511092     0.721213     0.022525  Biso 1.000000     C
    C   1.0     0.187305     0.529524     0.888147  Biso 1.000000     C
    C   1.0     0.231258     0.434778     0.982702  Biso 1.000000     C
    C   1.0     0.434183     0.456759     0.753869  Biso 1.000000     C
    C   1.0     0.438946     0.418794     0.675071  Biso 1.000000     C
    C   1.0     0.491589     0.330963     0.660605  Biso 1.000000     C
    C   1.0     0.493586     0.295034     0.586767  Biso 1.000000     C
    C   1.0     0.441649     0.346619     0.526303  Biso 1.000000     C
    C   1.0     0.390154     0.435152     0.539370  Biso 1.000000     C
    C   1.0     0.389357     0.470592     0.613454  Biso 1.000000     C
    C   1.0     0.365925     0.325729     0.398652  Biso 1.000000     C
    C   1.0     0.256932     0.310456     0.413169  Biso 1.000000     C
    C   1.0     0.177119     0.324759     0.354685  Biso 1.000000     C
    C   1.0     0.205431     0.354666     0.282148  Biso 1.000000     C
    C   1.0     0.315399     0.368106     0.268767  Biso 1.000000     C
    C   1.0     0.396050     0.353141     0.326554  Biso 1.000000     C
    C   1.0     0.119116     0.370397     0.219917  Biso 1.000000     C
    C   1.0     0.018126     0.188817     0.096887  Biso 1.000000     C
    C   1.0     0.988716     0.221179     0.977496  Biso 1.000000     C
    C   1.0     0.312656     0.029538     0.111899  Biso 1.000000     C
    C   1.0     0.268717     0.935039     0.017208  Biso 1.000000     C
    C   1.0     0.065852     0.956670     0.246112  Biso 1.000000     C
    C   1.0     0.061154     0.918676     0.324897  Biso 1.000000     C
    C   1.0     0.008713     0.830790     0.339335  Biso 1.000000     C
    C   1.0     0.006711     0.794882     0.413172  Biso 1.000000     C
    C   1.0     0.058459     0.846533     0.473659  Biso 1.000000     C
    C   1.0     0.109806     0.935091     0.460613  Biso 1.000000     C
    C   1.0     0.110617     0.970506     0.386531  Biso 1.000000     C
    C   1.0     0.134116     0.825700     0.601319  Biso 1.000000     C
    C   1.0     0.243114     0.810301     0.586826  Biso 1.000000     C
    C   1.0     0.322922     0.824651     0.645300  Biso 1.000000     C
    C   1.0     0.294592     0.854635     0.717827  Biso 1.000000     C
    C   1.0     0.184618     0.868188     0.731187  Biso 1.000000     C
    C   1.0     0.103976     0.853183     0.673409  Biso 1.000000     C
    C   1.0     0.380891     0.870391     0.780057  Biso 1.000000     C
    C   1.0     0.518207     0.311196     0.096855  Biso 1.000000     C
    C   1.0     0.488860     0.278810     0.977462  Biso 1.000000     C
    C   1.0     0.812648     0.470499     0.111839  Biso 1.000000     C
    C   1.0     0.768694     0.565245     0.017284  Biso 1.000000     C
    C   1.0     0.565763     0.543263     0.246118  Biso 1.000000     C
    C   1.0     0.561001     0.581226     0.324917  Biso 1.000000     C
    C   1.0     0.508376     0.669066     0.339381  Biso 1.000000     C
    C   1.0     0.506358     0.704984     0.413221  Biso 1.000000     C
    C   1.0     0.558312     0.653410     0.473684  Biso 1.000000     C
    C   1.0     0.609793     0.564870     0.460618  Biso 1.000000     C
    C   1.0     0.610612     0.529440     0.386532  Biso 1.000000     C
    C   1.0     0.634029     0.674276     0.601329  Biso 1.000000     C
    C   1.0     0.743019     0.689588     0.586823  Biso 1.000000     C
    C   1.0     0.822838     0.675225     0.645293  Biso 1.000000     C
    C   1.0     0.794520     0.645382     0.717845  Biso 1.000000     C
    C   1.0     0.684557     0.631879     0.731210  Biso 1.000000     C
    C   1.0     0.603902     0.646904     0.673436  Biso 1.000000     C
    C   1.0     0.880835     0.629635     0.780072  Biso 1.000000     C
    C   1.0     0.981827     0.811206     0.903101  Biso 1.000000     C
    C   1.0     0.011240     0.778845     0.022491  Biso 1.000000     C
    C   1.0     0.687297     0.970485     0.888088  Biso 1.000000     C
    C   1.0     0.731235     0.064984     0.982779  Biso 1.000000     C
    C   1.0     0.934102     0.043352     0.753875  Biso 1.000000     C
    C   1.0     0.938798     0.081347     0.675090  Biso 1.000000     C
    C   1.0    -0.008722     0.169231     0.660652  Biso 1.000000     C
    C   1.0    -0.006722     0.205140     0.586815  Biso 1.000000     C
    C   1.0     0.941495     0.153489     0.526329  Biso 1.000000     C
    C   1.0     0.890142     0.064934     0.539375  Biso 1.000000     C
    C   1.0     0.889333     0.029518     0.613456  Biso 1.000000     C
    C   1.0     0.865837     0.174335     0.398666  Biso 1.000000     C
    C   1.0     0.756837     0.189713     0.413163  Biso 1.000000     C
    C   1.0     0.677033     0.175399     0.354682  Biso 1.000000     C
    C   1.0     0.705358     0.145375     0.282164  Biso 1.000000     C
    C   1.0     0.815336     0.131857     0.268795  Biso 1.000000     C
    C   1.0     0.895976     0.146827     0.326580  Biso 1.000000     C
    C   1.0     0.619060     0.129628     0.219932  Biso 1.000000     C
    N   1.0     0.273097     0.478525     0.921910  Biso 1.000000     N
    N   1.0     0.096828     0.515607     0.926878  Biso 1.000000     N
    N   1.0     0.127109     0.454711     0.988223  Biso 1.000000     N
    N   1.0     0.192718     0.587660     0.827082  Biso 1.000000     N
    N   1.0     0.512204     0.624039     0.015978  Biso 1.000000     N
    N   1.0     0.492489     0.764174     0.952784  Biso 1.000000     N
    N   1.0     0.493878     0.604089     0.938285  Biso 1.000000     N
    N   1.0     0.531824     0.769948     0.089291  Biso 1.000000     N
    N   1.0     0.226879     0.978664     0.078079  Biso 1.000000     N
    N   1.0     0.403129     0.015671     0.073130  Biso 1.000000     N
    N   1.0     0.372847     0.954953     0.011695  Biso 1.000000     N
    N   1.0     0.307235     0.087541     0.173053  Biso 1.000000     N
    N   1.0     0.987560     0.124009     0.984043  Biso 1.000000     N
    N   1.0     0.007403     0.264156     0.047236  Biso 1.000000     N
    N   1.0     0.005938     0.104079     0.061735  Biso 1.000000     N
    N   1.0     0.967975     0.269921     0.910737  Biso 1.000000     N
    N   1.0     0.726855     0.521498     0.078077  Biso 1.000000     N
    N   1.0     0.903125     0.484416     0.073109  Biso 1.000000     N
    N   1.0     0.872843     0.545311     0.011764  Biso 1.000000     N
    N   1.0     0.807234     0.412363     0.172904  Biso 1.000000     N
    N   1.0     0.487748     0.375985     0.984009  Biso 1.000000     N
    N   1.0     0.507464     0.235849     0.047203  Biso 1.000000     N
    N   1.0     0.506075     0.395934     0.061702  Biso 1.000000     N
    N   1.0     0.468127     0.230075     0.910696  Biso 1.000000     N
    N   1.0     0.773074     0.021359     0.921908  Biso 1.000000     N
    N   1.0     0.596824     0.984353     0.926857  Biso 1.000000     N
    N   1.0     0.627106     0.045070     0.988292  Biso 1.000000     N
    N   1.0     0.692718     0.912482     0.826934  Biso 1.000000     N
    N   1.0     0.012394     0.876014     0.015944  Biso 1.000000     N
    N   1.0     0.992551     0.735866     0.952752  Biso 1.000000     N
    N   1.0     0.994013     0.895945     0.938252  Biso 1.000000     N
    N   1.0     0.031983     0.730102     0.089250  Biso 1.000000     N
    O   1.0     0.449214     0.308155     0.454280  Biso 1.000000     O
    O   1.0     0.021684     0.349938     0.229838  Biso 1.000000     O
    O   1.0     0.152313     0.404035     0.156072  Biso 1.000000     O
    O   1.0     0.398221     0.540657     0.766380  Biso 1.000000     O
    O   1.0     0.468167     0.400409     0.810086  Biso 1.000000     O
    O   1.0     0.050839     0.808133     0.545688  Biso 1.000000     O
    O   1.0     0.478351     0.849944     0.770140  Biso 1.000000     O
    O   1.0     0.347660     0.904062     0.843897  Biso 1.000000     O
    O   1.0     0.101746     0.040532     0.233628  Biso 1.000000     O
    O   1.0     0.031851     0.900376     0.189872  Biso 1.000000     O
    O   1.0     0.550738     0.691870     0.545707  Biso 1.000000     O
    O   1.0     0.978268     0.650081     0.770147  Biso 1.000000     O
    O   1.0     0.847642     0.595981     0.843913  Biso 1.000000     O
    O   1.0     0.601736     0.459368     0.233607  Biso 1.000000     O
    O   1.0     0.531790     0.599617     0.189900  Biso 1.000000     O
    O   1.0     0.949112     0.191890     0.454299  Biso 1.000000     O
    O   1.0     0.521600     0.150083     0.229845  Biso 1.000000     O
    O   1.0     0.652294     0.095966     0.156089  Biso 1.000000     O
    O   1.0     0.898206     0.959491     0.766359  Biso 1.000000     O
    O   1.0     0.968102     0.099646     0.810115  Biso 1.000000     O
   Zn   1.0     0.434869     0.474976     0.903456  Biso 1.000000    Zn
   Zn   1.0     0.462306     0.905040     0.926219  Biso 1.000000    Zn
   Zn   1.0     0.065109     0.974998     0.096537  Biso 1.000000    Zn
   Zn   1.0     0.037685     0.405001     0.073747  Biso 1.000000    Zn
   Zn   1.0     0.565084     0.525047     0.096530  Biso 1.000000    Zn
   Zn   1.0     0.537647     0.094983     0.073768  Biso 1.000000    Zn
   Zn   1.0     0.934843     0.025026     0.903449  Biso 1.000000    Zn
   Zn   1.0     0.962268     0.595023     0.926240  Biso 1.000000    Zn
