#======================================================================

# CRYSTAL DATA

#----------------------------------------------------------------------

data_VESTA_phase_1


_pd_phase_name                         MOF
_cell_length_a                         19.31400
_cell_length_b                         21.40000
_cell_length_c                         26.00400
_cell_angle_alpha                      57.18500
_cell_angle_beta                       75.07100
_cell_angle_gamma                      69.37500
_symmetry_space_group_name_H-M         "P 1"
_symmetry_Int_Tables_number            1

loop_
_symmetry_equiv_pos_as_xyz
   "x, y, z"

loop_
   _atom_site_label
   _atom_site_occupancy
   _atom_site_fract_x
   _atom_site_fract_y
   _atom_site_fract_z
   _atom_site_adp_type
   _atom_site_B_iso_or_equiv
   _atom_site_type_symbol
    H   1.0     0.239305     0.315243     0.175550  Biso 1.000000     H
    H   1.0     0.239274     0.315260     0.675559  Biso 1.000000     H
    H   1.0     0.239381     0.815276     0.175499  Biso 1.000000     H
    H   1.0     0.239338     0.815313     0.675517  Biso 1.000000     H
    H   1.0     0.739312     0.315247     0.175546  Biso 1.000000     H
    H   1.0     0.739280     0.315264     0.675555  Biso 1.000000     H
    H   1.0     0.739387     0.815280     0.175494  Biso 1.000000     H
    H   1.0     0.739344     0.815317     0.675513  Biso 1.000000     H
    H   1.0     0.322594     0.193964     0.177973  Biso 1.000000     H
    H   1.0     0.322553     0.193958     0.678019  Biso 1.000000     H
    H   1.0     0.322653     0.693950     0.177995  Biso 1.000000     H
    H   1.0     0.322621     0.694010     0.677978  Biso 1.000000     H
    H   1.0     0.822600     0.193967     0.177970  Biso 1.000000     H
    H   1.0     0.822559     0.193961     0.678016  Biso 1.000000     H
    H   1.0     0.822659     0.693953     0.177992  Biso 1.000000     H
    H   1.0     0.822627     0.694013     0.677975  Biso 1.000000     H
    H   1.0     0.004839     0.233679     0.211967  Biso 1.000000     H
    H   1.0     0.004803     0.233692     0.711989  Biso 1.000000     H
    H   1.0     0.004887     0.733652     0.212015  Biso 1.000000     H
    H   1.0     0.004848     0.733700     0.712018  Biso 1.000000     H
    H   1.0     0.504834     0.233679     0.211968  Biso 1.000000     H
    H   1.0     0.504798     0.233691     0.711990  Biso 1.000000     H
    H   1.0     0.504882     0.733652     0.212015  Biso 1.000000     H
    H   1.0     0.504844     0.733700     0.712018  Biso 1.000000     H
    H   1.0     0.421699     0.353454     0.211414  Biso 1.000000     H
    H   1.0     0.421672     0.353489     0.711400  Biso 1.000000     H
    H   1.0     0.421762     0.853475     0.211392  Biso 1.000000     H
    H   1.0     0.421713     0.853499     0.711431  Biso 1.000000     H
    H   1.0     0.921708     0.353456     0.211411  Biso 1.000000     H
    H   1.0     0.921680     0.353491     0.711399  Biso 1.000000     H
    H   1.0     0.921770     0.853477     0.211390  Biso 1.000000     H
    H   1.0     0.921721     0.853500     0.711429  Biso 1.000000     H
    H   1.0     0.358386     0.306345     0.452433  Biso 1.000000     H
    H   1.0     0.358382     0.306411     0.952366  Biso 1.000000     H
    H   1.0     0.358374     0.806320     0.452359  Biso 1.000000     H
    H   1.0     0.358340     0.806319     0.952412  Biso 1.000000     H
    H   1.0     0.858393     0.306349     0.452430  Biso 1.000000     H
    H   1.0     0.858389     0.306415     0.952364  Biso 1.000000     H
    H   1.0     0.858381     0.806323     0.452356  Biso 1.000000     H
    H   1.0     0.858347     0.806323     0.952409  Biso 1.000000     H
    H   1.0     0.142571     0.303697     0.439006  Biso 1.000000     H
    H   1.0     0.142568     0.303729     0.938968  Biso 1.000000     H
    H   1.0     0.142550     0.803674     0.438947  Biso 1.000000     H
    H   1.0     0.142519     0.803640     0.939029  Biso 1.000000     H
    H   1.0     0.642578     0.303700     0.439002  Biso 1.000000     H
    H   1.0     0.642576     0.303733     0.938964  Biso 1.000000     H
    H   1.0     0.642558     0.803677     0.438944  Biso 1.000000     H
    H   1.0     0.642526     0.803644     0.939026  Biso 1.000000     H
    H   1.0     0.260746     0.184747     0.324468  Biso 1.000000     H
    H   1.0     0.260703     0.184783     0.824486  Biso 1.000000     H
    H   1.0     0.260808     0.684809     0.324431  Biso 1.000000     H
    H   1.0     0.260776     0.684827     0.824439  Biso 1.000000     H
    H   1.0     0.760752     0.184752     0.324464  Biso 1.000000     H
    H   1.0     0.760709     0.184788     0.824482  Biso 1.000000     H
    H   1.0     0.760814     0.684813     0.324427  Biso 1.000000     H
    H   1.0     0.760782     0.684831     0.824436  Biso 1.000000     H
    H   1.0     0.177466     0.306049     0.322009  Biso 1.000000     H
    H   1.0     0.177434     0.306110     0.821992  Biso 1.000000     H
    H   1.0     0.177526     0.806113     0.321966  Biso 1.000000     H
    H   1.0     0.177485     0.806108     0.822011  Biso 1.000000     H
    H   1.0     0.677472     0.306052     0.322007  Biso 1.000000     H
    H   1.0     0.677440     0.306113     0.821988  Biso 1.000000     H
    H   1.0     0.677532     0.806116     0.321963  Biso 1.000000     H
    H   1.0     0.677491     0.806110     0.822008  Biso 1.000000     H
    H   1.0     0.495241     0.266362     0.287977  Biso 1.000000     H
    H   1.0     0.495202     0.266410     0.787980  Biso 1.000000     H
    H   1.0     0.495293     0.766376     0.287992  Biso 1.000000     H
    H   1.0     0.495256     0.766387     0.788015  Biso 1.000000     H
    H   1.0     0.995237     0.266361     0.287977  Biso 1.000000     H
    H   1.0     0.995197     0.266409     0.787981  Biso 1.000000     H
    H   1.0     0.995288     0.766375     0.287993  Biso 1.000000     H
    H   1.0     0.995250     0.766387     0.788016  Biso 1.000000     H
    H   1.0     0.078362     0.146565     0.288559  Biso 1.000000     H
    H   1.0     0.078312     0.146588     0.788599  Biso 1.000000     H
    H   1.0     0.078413     0.646575     0.288588  Biso 1.000000     H
    H   1.0     0.078385     0.646610     0.788576  Biso 1.000000     H
    H   1.0     0.578370     0.146567     0.288558  Biso 1.000000     H
    H   1.0     0.578320     0.146590     0.788597  Biso 1.000000     H
    H   1.0     0.578422     0.646577     0.288585  Biso 1.000000     H
    H   1.0     0.578393     0.646611     0.788573  Biso 1.000000     H
    H   1.0     0.141741     0.193747     0.047564  Biso 1.000000     H
    H   1.0     0.141708     0.193746     0.547617  Biso 1.000000     H
    H   1.0     0.141694     0.693665     0.047629  Biso 1.000000     H
    H   1.0     0.141690     0.693732     0.547562  Biso 1.000000     H
    H   1.0     0.641748     0.193750     0.047560  Biso 1.000000     H
    H   1.0     0.641716     0.193749     0.547613  Biso 1.000000     H
    H   1.0     0.641701     0.693668     0.047626  Biso 1.000000     H
    H   1.0     0.641697     0.693735     0.547559  Biso 1.000000     H
    H   1.0     0.357550     0.196433     0.060965  Biso 1.000000     H
    H   1.0     0.357520     0.196398     0.561046  Biso 1.000000     H
    H   1.0     0.357519     0.696339     0.061009  Biso 1.000000     H
    H   1.0     0.357516     0.696373     0.560971  Biso 1.000000     H
    H   1.0     0.857557     0.196436     0.060962  Biso 1.000000     H
    H   1.0     0.857528     0.196402     0.561043  Biso 1.000000     H
    H   1.0     0.857527     0.696343     0.061005  Biso 1.000000     H
    H   1.0     0.857524     0.696376     0.560968  Biso 1.000000     H
    C   1.0     0.271894     0.404730     0.204114  Biso 1.000000     C
    C   1.0     0.271867     0.404777     0.704088  Biso 1.000000     C
    C   1.0     0.271983     0.904797     0.204020  Biso 1.000000     C
    C   1.0     0.271930     0.904806     0.704074  Biso 1.000000     C
    C   1.0     0.771901     0.404733     0.204111  Biso 1.000000     C
    C   1.0     0.771874     0.404779     0.704085  Biso 1.000000     C
    C   1.0     0.771990     0.904801     0.204017  Biso 1.000000     C
    C   1.0     0.771937     0.904809     0.704071  Biso 1.000000     C
    C   1.0     0.324631     0.340356     0.195401  Biso 1.000000     C
    C   1.0     0.324601     0.340385     0.695395  Biso 1.000000     C
    C   1.0     0.324706     0.840387     0.195353  Biso 1.000000     C
    C   1.0     0.324659     0.840414     0.695385  Biso 1.000000     C
    C   1.0     0.824637     0.340359     0.195397  Biso 1.000000     C
    C   1.0     0.824608     0.340389     0.695391  Biso 1.000000     C
    C   1.0     0.824712     0.840390     0.195349  Biso 1.000000     C
    C   1.0     0.824665     0.840418     0.695381  Biso 1.000000     C
    C   1.0     0.297572     0.296748     0.183624  Biso 1.000000     C
    C   1.0     0.297539     0.296764     0.683636  Biso 1.000000     C
    C   1.0     0.297642     0.796770     0.183591  Biso 1.000000     C
    C   1.0     0.297600     0.796809     0.683606  Biso 1.000000     C
    C   1.0     0.797579     0.296751     0.183620  Biso 1.000000     C
    C   1.0     0.797546     0.296768     0.683631  Biso 1.000000     C
    C   1.0     0.797648     0.796773     0.183586  Biso 1.000000     C
    C   1.0     0.797606     0.796812     0.683602  Biso 1.000000     C
    C   1.0     0.343857     0.228993     0.185470  Biso 1.000000     C
    C   1.0     0.343819     0.228995     0.685503  Biso 1.000000     C
    C   1.0     0.343916     0.728989     0.185479  Biso 1.000000     C
    C   1.0     0.343880     0.729041     0.685474  Biso 1.000000     C
    C   1.0     0.843863     0.228995     0.185467  Biso 1.000000     C
    C   1.0     0.843824     0.228998     0.685500  Biso 1.000000     C
    C   1.0     0.843922     0.728992     0.185475  Biso 1.000000     C
    C   1.0     0.843886     0.729044     0.685470  Biso 1.000000     C
    C   1.0     0.417954     0.204195     0.198761  Biso 1.000000     C
    C   1.0     0.417915     0.204199     0.698794  Biso 1.000000     C
    C   1.0     0.418004     0.704181     0.198794  Biso 1.000000     C
    C   1.0     0.417969     0.704234     0.698785  Biso 1.000000     C
    C   1.0     0.917959     0.204198     0.198758  Biso 1.000000     C
    C   1.0     0.917919     0.204200     0.698795  Biso 1.000000     C
    C   1.0     0.918008     0.704183     0.198793  Biso 1.000000     C
    C   1.0     0.917974     0.704237     0.698782  Biso 1.000000     C
    C   1.0     0.446430     0.251604     0.204802  Biso 1.000000     C
    C   1.0     0.446394     0.251617     0.704822  Biso 1.000000     C
    C   1.0     0.446484     0.751592     0.204827  Biso 1.000000     C
    C   1.0     0.446445     0.751637     0.704834  Biso 1.000000     C
    C   1.0     0.946435     0.251606     0.204800  Biso 1.000000     C
    C   1.0     0.946400     0.251618     0.704822  Biso 1.000000     C
    C   1.0     0.946490     0.751594     0.204826  Biso 1.000000     C
    C   1.0     0.946450     0.751639     0.704833  Biso 1.000000     C
    C   1.0     0.400114     0.318730     0.203803  Biso 1.000000     C
    C   1.0     0.400083     0.318757     0.703802  Biso 1.000000     C
    C   1.0     0.400179     0.818743     0.203788  Biso 1.000000     C
    C   1.0     0.400133     0.818775     0.703815  Biso 1.000000     C
    C   1.0     0.900120     0.318733     0.203800  Biso 1.000000     C
    C   1.0     0.900090     0.318760     0.703798  Biso 1.000000     C
    C   1.0     0.900185     0.818746     0.203785  Biso 1.000000     C
    C   1.0     0.900139     0.818777     0.703813  Biso 1.000000     C
    C   1.0     0.034765     0.374452     0.288723  Biso 1.000000     C
    C   1.0     0.034736     0.374514     0.788698  Biso 1.000000     C
    C   1.0     0.034812     0.874501     0.288702  Biso 1.000000     C
    C   1.0     0.034766     0.874493     0.788758  Biso 1.000000     C
    C   1.0     0.534769     0.374454     0.288722  Biso 1.000000     C
    C   1.0     0.534740     0.374515     0.788698  Biso 1.000000     C
    C   1.0     0.534817     0.874502     0.288701  Biso 1.000000     C
    C   1.0     0.534769     0.874495     0.788757  Biso 1.000000     C
    C   1.0     0.251163     0.376832     0.374702  Biso 1.000000     C
    C   1.0     0.251140     0.376893     0.874655  Biso 1.000000     C
    C   1.0     0.251136     0.876812     0.374634  Biso 1.000000     C
    C   1.0     0.251084     0.876804     0.874706  Biso 1.000000     C
    C   1.0     0.751170     0.376836     0.374699  Biso 1.000000     C
    C   1.0     0.751147     0.376896     0.874651  Biso 1.000000     C
    C   1.0     0.751143     0.876815     0.374630  Biso 1.000000     C
    C   1.0     0.751092     0.876806     0.874702  Biso 1.000000     C
    C   1.0     0.250541     0.311409     0.439453  Biso 1.000000     C
    C   1.0     0.250538     0.311457     0.939400  Biso 1.000000     C
    C   1.0     0.250528     0.811379     0.439384  Biso 1.000000     C
    C   1.0     0.250495     0.811362     0.939452  Biso 1.000000     C
    C   1.0     0.750549     0.311412     0.439448  Biso 1.000000     C
    C   1.0     0.750545     0.311461     0.939397  Biso 1.000000     C
    C   1.0     0.750534     0.811385     0.439381  Biso 1.000000     C
    C   1.0     0.750501     0.811367     0.939449  Biso 1.000000     C
    C   1.0     0.311274     0.281233     0.473776  Biso 1.000000     C
    C   1.0     0.311277     0.281287     0.973715  Biso 1.000000     C
    C   1.0     0.311263     0.781206     0.473704  Biso 1.000000     C
    C   1.0     0.311238     0.781192     0.973762  Biso 1.000000     C
    C   1.0     0.811281     0.281237     0.473773  Biso 1.000000     C
    C   1.0     0.811285     0.281291     0.973712  Biso 1.000000     C
    C   1.0     0.811270     0.781209     0.473701  Biso 1.000000     C
    C   1.0     0.811245     0.781196     0.973759  Biso 1.000000     C
    C   1.0     0.189313     0.279732     0.466154  Biso 1.000000     C
    C   1.0     0.189317     0.279769     0.966108  Biso 1.000000     C
    C   1.0     0.189297     0.779706     0.466092  Biso 1.000000     C
    C   1.0     0.189274     0.779674     0.966165  Biso 1.000000     C
    C   1.0     0.689321     0.279735     0.466151  Biso 1.000000     C
    C   1.0     0.689325     0.279772     0.966104  Biso 1.000000     C
    C   1.0     0.689305     0.779710     0.466088  Biso 1.000000     C
    C   1.0     0.689280     0.779679     0.966162  Biso 1.000000     C
    C   1.0     0.228150     0.095259     0.295909  Biso 1.000000     C
    C   1.0     0.228095     0.095265     0.795964  Biso 1.000000     C
    C   1.0     0.228220     0.595291     0.295900  Biso 1.000000     C
    C   1.0     0.228194     0.595338     0.795873  Biso 1.000000     C
    C   1.0     0.728156     0.095261     0.295907  Biso 1.000000     C
    C   1.0     0.728103     0.095270     0.795960  Biso 1.000000     C
    C   1.0     0.728228     0.595295     0.295895  Biso 1.000000     C
    C   1.0     0.728201     0.595341     0.795870  Biso 1.000000     C
    C   1.0     0.175422     0.159647     0.304603  Biso 1.000000     C
    C   1.0     0.175374     0.159675     0.804634  Biso 1.000000     C
    C   1.0     0.175484     0.659682     0.304592  Biso 1.000000     C
    C   1.0     0.175453     0.659709     0.804590  Biso 1.000000     C
    C   1.0     0.675429     0.159652     0.304597  Biso 1.000000     C
    C   1.0     0.675380     0.159677     0.804632  Biso 1.000000     C
    C   1.0     0.675490     0.659684     0.304591  Biso 1.000000     C
    C   1.0     0.675460     0.659713     0.804585  Biso 1.000000     C
    C   1.0     0.202482     0.203251     0.316383  Biso 1.000000     C
    C   1.0     0.202440     0.203290     0.816397  Biso 1.000000     C
    C   1.0     0.202543     0.703306     0.316352  Biso 1.000000     C
    C   1.0     0.202510     0.703322     0.816363  Biso 1.000000     C
    C   1.0     0.702489     0.203255     0.316377  Biso 1.000000     C
    C   1.0     0.702446     0.203293     0.816394  Biso 1.000000     C
    C   1.0     0.702549     0.703309     0.316348  Biso 1.000000     C
    C   1.0     0.702516     0.703324     0.816361  Biso 1.000000     C
    C   1.0     0.156205     0.271019     0.314515  Biso 1.000000     C
    C   1.0     0.156168     0.271071     0.814510  Biso 1.000000     C
    C   1.0     0.156262     0.771074     0.314484  Biso 1.000000     C
    C   1.0     0.156224     0.771078     0.814515  Biso 1.000000     C
    C   1.0     0.656210     0.271022     0.314512  Biso 1.000000     C
    C   1.0     0.656174     0.271074     0.814507  Biso 1.000000     C
    C   1.0     0.656269     0.771078     0.314479  Biso 1.000000     C
    C   1.0     0.656230     0.771080     0.814512  Biso 1.000000     C
    C   1.0     0.082115     0.295825     0.301207  Biso 1.000000     C
    C   1.0     0.082080     0.295879     0.801198  Biso 1.000000     C
    C   1.0     0.082168     0.795871     0.301187  Biso 1.000000     C
    C   1.0     0.082128     0.795873     0.801225  Biso 1.000000     C
    C   1.0     0.582119     0.295826     0.301208  Biso 1.000000     C
    C   1.0     0.582085     0.295881     0.801197  Biso 1.000000     C
    C   1.0     0.582174     0.795875     0.301184  Biso 1.000000     C
    C   1.0     0.582134     0.795877     0.801219  Biso 1.000000     C
    C   1.0     0.053636     0.248423     0.295158  Biso 1.000000     C
    C   1.0     0.053596     0.248468     0.795166  Biso 1.000000     C
    C   1.0     0.053690     0.748449     0.295163  Biso 1.000000     C
    C   1.0     0.053654     0.748462     0.795184  Biso 1.000000     C
    C   1.0     0.553641     0.248424     0.295158  Biso 1.000000     C
    C   1.0     0.553601     0.248470     0.795164  Biso 1.000000     C
    C   1.0     0.553696     0.748451     0.295162  Biso 1.000000     C
    C   1.0     0.553660     0.748465     0.795181  Biso 1.000000     C
    C   1.0     0.099946     0.181286     0.296176  Biso 1.000000     C
    C   1.0     0.099899     0.181317     0.796203  Biso 1.000000     C
    C   1.0     0.100003     0.681309     0.296185  Biso 1.000000     C
    C   1.0     0.099971     0.681334     0.796186  Biso 1.000000     C
    C   1.0     0.599952     0.181290     0.296173  Biso 1.000000     C
    C   1.0     0.599905     0.181320     0.796201  Biso 1.000000     C
    C   1.0     0.600009     0.681311     0.296183  Biso 1.000000     C
    C   1.0     0.599978     0.681337     0.796182  Biso 1.000000     C
    C   1.0     0.465319     0.125580     0.211217  Biso 1.000000     C
    C   1.0     0.465272     0.125573     0.711274  Biso 1.000000     C
    C   1.0     0.465348     0.625545     0.211296  Biso 1.000000     C
    C   1.0     0.465320     0.625607     0.711270  Biso 1.000000     C
    C   1.0     0.965323     0.125582     0.211216  Biso 1.000000     C
    C   1.0     0.965276     0.125575     0.711272  Biso 1.000000     C
    C   1.0     0.965352     0.625547     0.211294  Biso 1.000000     C
    C   1.0     0.965324     0.625608     0.711269  Biso 1.000000     C
    C   1.0     0.248991     0.123261     0.125276  Biso 1.000000     C
    C   1.0     0.248942     0.123253     0.625347  Biso 1.000000     C
    C   1.0     0.248950     0.623176     0.125333  Biso 1.000000     C
    C   1.0     0.248927     0.623236     0.625285  Biso 1.000000     C
    C   1.0     0.748998     0.123265     0.125271  Biso 1.000000     C
    C   1.0     0.748948     0.123258     0.625344  Biso 1.000000     C
    C   1.0     0.748956     0.623181     0.125330  Biso 1.000000     C
    C   1.0     0.748935     0.623239     0.625281  Biso 1.000000     C
    C   1.0     0.249581     0.188708     0.060532  Biso 1.000000     C
    C   1.0     0.249549     0.188690     0.560600  Biso 1.000000     C
    C   1.0     0.249543     0.688616     0.060588  Biso 1.000000     C
    C   1.0     0.249540     0.688664     0.560535  Biso 1.000000     C
    C   1.0     0.749588     0.188712     0.060529  Biso 1.000000     C
    C   1.0     0.749557     0.188692     0.560596  Biso 1.000000     C
    C   1.0     0.749553     0.688616     0.060583  Biso 1.000000     C
    C   1.0     0.749546     0.688670     0.560532  Biso 1.000000     C
    C   1.0     0.188842     0.218876     0.026217  Biso 1.000000     C
    C   1.0     0.188818     0.218862     0.526276  Biso 1.000000     C
    C   1.0     0.188799     0.718787     0.026276  Biso 1.000000     C
    C   1.0     0.188804     0.718841     0.526215  Biso 1.000000     C
    C   1.0     0.688849     0.218880     0.026214  Biso 1.000000     C
    C   1.0     0.688825     0.218866     0.526272  Biso 1.000000     C
    C   1.0     0.688807     0.718790     0.026273  Biso 1.000000     C
    C   1.0     0.688811     0.718844     0.526212  Biso 1.000000     C
    C   1.0     0.310800     0.220398     0.033825  Biso 1.000000     C
    C   1.0     0.310778     0.220366     0.533898  Biso 1.000000     C
    C   1.0     0.310765     0.720302     0.033873  Biso 1.000000     C
    C   1.0     0.310770     0.720337     0.533827  Biso 1.000000     C
    C   1.0     0.810808     0.220401     0.033822  Biso 1.000000     C
    C   1.0     0.810784     0.220371     0.533895  Biso 1.000000     C
    C   1.0     0.810773     0.720304     0.033869  Biso 1.000000     C
    C   1.0     0.810778     0.720341     0.533823  Biso 1.000000     C
    O   1.0     0.203845     0.423895     0.195666  Biso 1.000000     O
    O   1.0     0.203820     0.423946     0.695633  Biso 1.000000     O
    O   1.0     0.203942     0.923996     0.195546  Biso 1.000000     O
    O   1.0     0.203890     0.924004     0.695599  Biso 1.000000     O
    O   1.0     0.703853     0.423900     0.195662  Biso 1.000000     O
    O   1.0     0.703827     0.423951     0.695629  Biso 1.000000     O
    O   1.0     0.703948     0.923999     0.195544  Biso 1.000000     O
    O   1.0     0.703896     0.924008     0.695596  Biso 1.000000     O
    O   1.0     0.295168     0.436908     0.224102  Biso 1.000000     O
    O   1.0     0.295140     0.436966     0.724066  Biso 1.000000     O
    O   1.0     0.295269     0.936982     0.223995  Biso 1.000000     O
    O   1.0     0.295210     0.936973     0.724068  Biso 1.000000     O
    O   1.0     0.795176     0.436911     0.224099  Biso 1.000000     O
    O   1.0     0.795149     0.436968     0.724063  Biso 1.000000     O
    O   1.0     0.795277     0.936987     0.223990  Biso 1.000000     O
    O   1.0     0.795217     0.936977     0.724064  Biso 1.000000     O
    O   1.0     0.467966     0.393463     0.276336  Biso 1.000000     O
    O   1.0     0.467940     0.393526     0.776306  Biso 1.000000     O
    O   1.0     0.467998     0.893493     0.276360  Biso 1.000000     O
    O   1.0     0.467951     0.893485     0.776416  Biso 1.000000     O
    O   1.0     0.967965     0.393461     0.276334  Biso 1.000000     O
    O   1.0     0.967939     0.393524     0.776304  Biso 1.000000     O
    O   1.0     0.967998     0.893493     0.276356  Biso 1.000000     O
    O   1.0     0.967950     0.893484     0.776414  Biso 1.000000     O
    O   1.0     0.063325     0.419347     0.289231  Biso 1.000000     O
    O   1.0     0.063298     0.419412     0.789197  Biso 1.000000     O
    O   1.0     0.063389     0.919420     0.289160  Biso 1.000000     O
    O   1.0     0.063340     0.919408     0.789225  Biso 1.000000     O
    O   1.0     0.563329     0.419348     0.289228  Biso 1.000000     O
    O   1.0     0.563303     0.419414     0.789195  Biso 1.000000     O
    O   1.0     0.563395     0.919422     0.289155  Biso 1.000000     O
    O   1.0     0.563343     0.919408     0.789225  Biso 1.000000     O
    O   1.0     0.194355     0.402045     0.345515  Biso 1.000000     O
    O   1.0     0.194328     0.402103     0.845472  Biso 1.000000     O
    O   1.0     0.194337     0.901997     0.345448  Biso 1.000000     O
    O   1.0     0.194282     0.901986     0.845525  Biso 1.000000     O
    O   1.0     0.694364     0.402047     0.345509  Biso 1.000000     O
    O   1.0     0.694336     0.402106     0.845468  Biso 1.000000     O
    O   1.0     0.694345     0.901999     0.345442  Biso 1.000000     O
    O   1.0     0.694289     0.901990     0.845521  Biso 1.000000     O
    O   1.0     0.308101     0.403412     0.352168  Biso 1.000000     O
    O   1.0     0.308071     0.403484     0.852117  Biso 1.000000     O
    O   1.0     0.308056     0.903422     0.352100  Biso 1.000000     O
    O   1.0     0.308001     0.903421     0.852169  Biso 1.000000     O
    O   1.0     0.808107     0.403419     0.352166  Biso 1.000000     O
    O   1.0     0.808079     0.403486     0.852113  Biso 1.000000     O
    O   1.0     0.808063     0.903426     0.352097  Biso 1.000000     O
    O   1.0     0.808008     0.903425     0.852166  Biso 1.000000     O
    O   1.0     0.296189     0.076051     0.304390  Biso 1.000000     O
    O   1.0     0.296135     0.076060     0.804444  Biso 1.000000     O
    O   1.0     0.296269     0.576128     0.304349  Biso 1.000000     O
    O   1.0     0.296243     0.576180     0.804316  Biso 1.000000     O
    O   1.0     0.796196     0.076056     0.304386  Biso 1.000000     O
    O   1.0     0.796143     0.076065     0.804439  Biso 1.000000     O
    O   1.0     0.796276     0.576133     0.304346  Biso 1.000000     O
    O   1.0     0.796250     0.576182     0.804315  Biso 1.000000     O
    O   1.0     0.204871     0.063104     0.275903  Biso 1.000000     O
    O   1.0     0.204811     0.063093     0.775978  Biso 1.000000     O
    O   1.0     0.204947     0.563096     0.275926  Biso 1.000000     O
    O   1.0     0.204921     0.563153     0.775890  Biso 1.000000     O
    O   1.0     0.704879     0.063106     0.275900  Biso 1.000000     O
    O   1.0     0.704819     0.063096     0.775975  Biso 1.000000     O
    O   1.0     0.704956     0.563099     0.275923  Biso 1.000000     O
    O   1.0     0.704929     0.563158     0.775885  Biso 1.000000     O
    O   1.0     0.032139     0.106590     0.223560  Biso 1.000000     O
    O   1.0     0.032091     0.106582     0.723617  Biso 1.000000     O
    O   1.0     0.032144     0.606532     0.223702  Biso 1.000000     O
    O   1.0     0.032119     0.606595     0.723671  Biso 1.000000     O
    O   1.0     0.532138     0.106589     0.223558  Biso 1.000000     O
    O   1.0     0.532091     0.106581     0.723615  Biso 1.000000     O
    O   1.0     0.532145     0.606531     0.223698  Biso 1.000000     O
    O   1.0     0.532119     0.606594     0.723667  Biso 1.000000     O
    O   1.0     0.436746     0.080672     0.210742  Biso 1.000000     O
    O   1.0     0.436694     0.080658     0.710812  Biso 1.000000     O
    O   1.0     0.436790     0.580650     0.210790  Biso 1.000000     O
    O   1.0     0.436764     0.580716     0.710756  Biso 1.000000     O
    O   1.0     0.936751     0.080673     0.210739  Biso 1.000000     O
    O   1.0     0.936699     0.080660     0.710807  Biso 1.000000     O
    O   1.0     0.936795     0.580651     0.210786  Biso 1.000000     O
    O   1.0     0.936768     0.580717     0.710754  Biso 1.000000     O
    O   1.0     0.305793     0.098076     0.154459  Biso 1.000000     O
    O   1.0     0.305738     0.098069     0.654537  Biso 1.000000     O
    O   1.0     0.305768     0.597964     0.154509  Biso 1.000000     O
    O   1.0     0.305741     0.598022     0.654467  Biso 1.000000     O
    O   1.0     0.805799     0.098081     0.154455  Biso 1.000000     O
    O   1.0     0.805745     0.098072     0.654533  Biso 1.000000     O
    O   1.0     0.805776     0.597966     0.154504  Biso 1.000000     O
    O   1.0     0.805748     0.598026     0.654463  Biso 1.000000     O
    O   1.0     0.192076     0.096642     0.147806  Biso 1.000000     O
    O   1.0     0.192023     0.096640     0.647876  Biso 1.000000     O
    O   1.0     0.192018     0.596585     0.147876  Biso 1.000000     O
    O   1.0     0.191989     0.596656     0.647826  Biso 1.000000     O
    O   1.0     0.692083     0.096646     0.147803  Biso 1.000000     O
    O   1.0     0.692029     0.096645     0.647872  Biso 1.000000     O
    O   1.0     0.692023     0.596591     0.147875  Biso 1.000000     O
    O   1.0     0.691998     0.596657     0.647822  Biso 1.000000     O
   La   1.0     0.145669     0.002635     0.246762  Biso 1.000000    La
   La   1.0     0.145618     0.002623     0.746834  Biso 1.000000    La
   La   1.0     0.145652     0.502567     0.246862  Biso 1.000000    La
   La   1.0     0.145628     0.502632     0.746818  Biso 1.000000    La
   La   1.0     0.645672     0.002640     0.246759  Biso 1.000000    La
   La   1.0     0.645623     0.002629     0.746830  Biso 1.000000    La
   La   1.0     0.645656     0.502572     0.246858  Biso 1.000000    La
   La   1.0     0.645632     0.502637     0.746814  Biso 1.000000    La
   La   1.0     0.354460     0.497433     0.253171  Biso 1.000000    La
   La   1.0     0.354436     0.497498     0.753127  Biso 1.000000    La
   La   1.0     0.354467     0.997444     0.253145  Biso 1.000000    La
   La   1.0     0.354415     0.997432     0.753218  Biso 1.000000    La
   La   1.0     0.854464     0.497437     0.253167  Biso 1.000000    La
   La   1.0     0.854440     0.497502     0.753124  Biso 1.000000    La
   La   1.0     0.854469     0.997449     0.253141  Biso 1.000000    La
   La   1.0     0.854419     0.997437     0.753214  Biso 1.000000    La
