#======================================================================

# CRYSTAL DATA

#----------------------------------------------------------------------

data_VESTA_phase_1


_pd_phase_name                         MOF
_cell_length_a                         17.92400
_cell_length_b                         17.97900
_cell_length_c                         13.77500
_cell_angle_alpha                      73.33100
_cell_angle_beta                       71.91100
_cell_angle_gamma                      81.63200
_symmetry_space_group_name_H-M         "P 1"
_symmetry_Int_Tables_number            1

loop_
_symmetry_equiv_pos_as_xyz
   "x, y, z"

loop_
   _atom_site_label
   _atom_site_occupancy
   _atom_site_fract_x
   _atom_site_fract_y
   _atom_site_fract_z
   _atom_site_adp_type
   _atom_site_B_iso_or_equiv
   _atom_site_type_symbol
    H   1.0     0.438477     0.132900     0.621617  Biso 1.000000     H
    H   1.0     0.438481     0.632900     0.621617  Biso 1.000000     H
    H   1.0     0.938469     0.132900     0.621618  Biso 1.000000     H
    H   1.0     0.938473     0.632899     0.621618  Biso 1.000000     H
    H   1.0     0.042972     0.125904     0.453744  Biso 1.000000     H
    H   1.0     0.042975     0.625900     0.453744  Biso 1.000000     H
    H   1.0     0.542965     0.125904     0.453743  Biso 1.000000     H
    H   1.0     0.542968     0.625901     0.453744  Biso 1.000000     H
    H   1.0     0.267168     0.496925     0.978468  Biso 1.000000     H
    H   1.0     0.267161     0.996914     0.978468  Biso 1.000000     H
    H   1.0     0.767163     0.496921     0.978473  Biso 1.000000     H
    H   1.0     0.767156     0.996909     0.978473  Biso 1.000000     H
    H   1.0     0.369918     0.480005     0.814209  Biso 1.000000     H
    H   1.0     0.369910     0.979992     0.814209  Biso 1.000000     H
    H   1.0     0.869913     0.479999     0.814215  Biso 1.000000     H
    H   1.0     0.869904     0.979987     0.814215  Biso 1.000000     H
    H   1.0     0.502378     0.147542     0.850617  Biso 1.000000     H
    H   1.0     0.502375     0.647537     0.850616  Biso 1.000000     H
    H   1.0     0.000000     0.147545     0.850612  Biso 1.000000     H
    H   1.0     0.000000     0.647540     0.850613  Biso 1.000000     H
    H   1.0     0.391843     0.160248     0.000000  Biso 1.000000     H
    H   1.0     0.391839     0.660241     0.000000  Biso 1.000000     H
    H   1.0     0.891833     0.160252     0.000000  Biso 1.000000     H
    H   1.0     0.891829     0.660244     0.000000  Biso 1.000000     H
    H   1.0     0.041471     0.443213     0.880953  Biso 1.000000     H
    H   1.0     0.041468     0.943201     0.880953  Biso 1.000000     H
    H   1.0     0.541463     0.443215     0.880953  Biso 1.000000     H
    H   1.0     0.541461     0.943203     0.880954  Biso 1.000000     H
    H   1.0     0.133019     0.359142     0.782998  Biso 1.000000     H
    H   1.0     0.133022     0.859134     0.782995  Biso 1.000000     H
    H   1.0     0.633011     0.359144     0.782997  Biso 1.000000     H
    H   1.0     0.633014     0.859135     0.782996  Biso 1.000000     H
    H   1.0     0.250138     0.481018     0.738442  Biso 1.000000     H
    H   1.0     0.250132     0.981017     0.738443  Biso 1.000000     H
    H   1.0     0.750130     0.481019     0.738442  Biso 1.000000     H
    H   1.0     0.750126     0.981017     0.738444  Biso 1.000000     H
    H   1.0     0.279257     0.388338     0.711658  Biso 1.000000     H
    H   1.0     0.279258     0.888337     0.711659  Biso 1.000000     H
    H   1.0     0.779249     0.388338     0.711659  Biso 1.000000     H
    H   1.0     0.779251     0.888337     0.711660  Biso 1.000000     H
    H   1.0     0.205393     0.413189     0.583818  Biso 1.000000     H
    H   1.0     0.205396     0.913183     0.583817  Biso 1.000000     H
    H   1.0     0.705387     0.413192     0.583817  Biso 1.000000     H
    H   1.0     0.705390     0.913185     0.583817  Biso 1.000000     H
    H   1.0     0.256936     0.496339     0.551657  Biso 1.000000     H
    H   1.0     0.256933     0.996336     0.551658  Biso 1.000000     H
    H   1.0     0.756929     0.496341     0.551658  Biso 1.000000     H
    H   1.0     0.756927     0.996338     0.551660  Biso 1.000000     H
    H   1.0     0.131158     0.454234     0.008044  Biso 1.000000     H
    H   1.0     0.131155     0.954226     0.008044  Biso 1.000000     H
    H   1.0     0.631153     0.454235     0.008043  Biso 1.000000     H
    H   1.0     0.631150     0.954228     0.008043  Biso 1.000000     H
    H   1.0     0.116030     0.057273     0.993418  Biso 1.000000     H
    H   1.0     0.116034     0.557258     0.993416  Biso 1.000000     H
    H   1.0     0.616026     0.057275     0.993416  Biso 1.000000     H
    H   1.0     0.616028     0.557260     0.993415  Biso 1.000000     H
    H   1.0     0.035741     0.001380     0.000000  Biso 1.000000     H
    H   1.0     0.035741     0.501370     0.000000  Biso 1.000000     H
    H   1.0     0.535736     0.001382     0.000000  Biso 1.000000     H
    H   1.0     0.535736     0.501371     0.000000  Biso 1.000000     H
    H   1.0     0.172016     0.249856     0.898806  Biso 1.000000     H
    H   1.0     0.172020     0.749849     0.898804  Biso 1.000000     H
    H   1.0     0.672006     0.249858     0.898805  Biso 1.000000     H
    H   1.0     0.672012     0.749850     0.898804  Biso 1.000000     H
    H   1.0     0.268261     0.286345     0.852592  Biso 1.000000     H
    H   1.0     0.268264     0.786342     0.852590  Biso 1.000000     H
    H   1.0     0.768252     0.286345     0.852593  Biso 1.000000     H
    H   1.0     0.768255     0.786342     0.852591  Biso 1.000000     H
    H   1.0     0.217340     0.263875     0.990733  Biso 1.000000     H
    H   1.0     0.217343     0.763871     0.990732  Biso 1.000000     H
    H   1.0     0.717331     0.263875     0.990734  Biso 1.000000     H
    H   1.0     0.717335     0.763870     0.990733  Biso 1.000000     H
    H   1.0     0.448755     0.040733     0.383061  Biso 1.000000     H
    H   1.0     0.448752     0.540730     0.383061  Biso 1.000000     H
    H   1.0     0.948747     0.040743     0.383060  Biso 1.000000     H
    H   1.0     0.948746     0.540718     0.383060  Biso 1.000000     H
    H   1.0     0.497828     0.093097     0.139841  Biso 1.000000     H
    H   1.0     0.497826     0.593088     0.139840  Biso 1.000000     H
    H   1.0     0.997821     0.093100     0.139839  Biso 1.000000     H
    H   1.0     0.997817     0.593090     0.139841  Biso 1.000000     H
    H   1.0     0.243752     0.337679     0.141299  Biso 1.000000     H
    H   1.0     0.243744     0.837668     0.141301  Biso 1.000000     H
    H   1.0     0.743740     0.337680     0.141300  Biso 1.000000     H
    H   1.0     0.743734     0.837669     0.141301  Biso 1.000000     H
    H   1.0     0.198626     0.295438     0.384570  Biso 1.000000     H
    H   1.0     0.198637     0.795424     0.384571  Biso 1.000000     H
    H   1.0     0.698635     0.295436     0.384570  Biso 1.000000     H
    H   1.0     0.698624     0.795425     0.384571  Biso 1.000000     H
    C   1.0     0.133462     0.010755     0.621748  Biso 1.000000     C
    C   1.0     0.133461     0.510743     0.621747  Biso 1.000000     C
    C   1.0     0.633456     0.010757     0.621748  Biso 1.000000     C
    C   1.0     0.633454     0.510745     0.621747  Biso 1.000000     C
    C   1.0     0.078274     0.012011     0.719769  Biso 1.000000     C
    C   1.0     0.078273     0.511998     0.719769  Biso 1.000000     C
    C   1.0     0.578267     0.012011     0.719769  Biso 1.000000     C
    C   1.0     0.578266     0.511999     0.719768  Biso 1.000000     C
    C   1.0     0.006794     0.056563     0.720186  Biso 1.000000     C
    C   1.0     0.006795     0.556556     0.720187  Biso 1.000000     C
    C   1.0     0.506788     0.056565     0.720186  Biso 1.000000     C
    C   1.0     0.506789     0.556558     0.720186  Biso 1.000000     C
    C   1.0     0.493162     0.097870     0.623917  Biso 1.000000     C
    C   1.0     0.493164     0.597865     0.623918  Biso 1.000000     C
    C   1.0     0.993155     0.097871     0.623917  Biso 1.000000     C
    C   1.0     0.993157     0.597865     0.623918  Biso 1.000000     C
    C   1.0     0.050714     0.094492     0.530638  Biso 1.000000     C
    C   1.0     0.050716     0.594486     0.530638  Biso 1.000000     C
    C   1.0     0.550707     0.094493     0.530638  Biso 1.000000     C
    C   1.0     0.550709     0.594488     0.530638  Biso 1.000000     C
    C   1.0     0.319583     0.030045     0.946494  Biso 1.000000     C
    C   1.0     0.319584     0.530035     0.946494  Biso 1.000000     C
    C   1.0     0.819577     0.030042     0.946497  Biso 1.000000     C
    C   1.0     0.819578     0.530031     0.946497  Biso 1.000000     C
    C   1.0     0.377431     0.020481     0.855625  Biso 1.000000     C
    C   1.0     0.377432     0.520471     0.855625  Biso 1.000000     C
    C   1.0     0.877425     0.020478     0.855627  Biso 1.000000     C
    C   1.0     0.877426     0.520468     0.855628  Biso 1.000000     C
    C   1.0     0.444875     0.062740     0.819191  Biso 1.000000     C
    C   1.0     0.444875     0.562732     0.819191  Biso 1.000000     C
    C   1.0     0.944867     0.062738     0.819192  Biso 1.000000     C
    C   1.0     0.944867     0.562730     0.819192  Biso 1.000000     C
    C   1.0     0.450587     0.114189     0.875709  Biso 1.000000     C
    C   1.0     0.450585     0.614182     0.875708  Biso 1.000000     C
    C   1.0     0.950578     0.114191     0.875707  Biso 1.000000     C
    C   1.0     0.950576     0.614183     0.875706  Biso 1.000000     C
    C   1.0     0.389897     0.121292     0.964915  Biso 1.000000     C
    C   1.0     0.389894     0.621284     0.964914  Biso 1.000000     C
    C   1.0     0.889888     0.121293     0.964913  Biso 1.000000     C
    C   1.0     0.889886     0.621285     0.964913  Biso 1.000000     C
    C   1.0     0.095766     0.468168     0.823229  Biso 1.000000     C
    C   1.0     0.095763     0.968158     0.823229  Biso 1.000000     C
    C   1.0     0.595759     0.468170     0.823229  Biso 1.000000     C
    C   1.0     0.595756     0.968160     0.823229  Biso 1.000000     C
    C   1.0     0.158635     0.401403     0.806940  Biso 1.000000     C
    C   1.0     0.158634     0.901396     0.806939  Biso 1.000000     C
    C   1.0     0.658627     0.401405     0.806939  Biso 1.000000     C
    C   1.0     0.658627     0.901397     0.806939  Biso 1.000000     C
    C   1.0     0.230805     0.433367     0.718370  Biso 1.000000     C
    C   1.0     0.230803     0.933364     0.718370  Biso 1.000000     C
    C   1.0     0.730797     0.433368     0.718370  Biso 1.000000     C
    C   1.0     0.730796     0.933364     0.718371  Biso 1.000000     C
    C   1.0     0.210074     0.462660     0.613679  Biso 1.000000     C
    C   1.0     0.210073     0.962655     0.613678  Biso 1.000000     C
    C   1.0     0.710067     0.462662     0.613679  Biso 1.000000     C
    C   1.0     0.710066     0.962656     0.613679  Biso 1.000000     C
    C   1.0     0.099519     0.007717     0.974880  Biso 1.000000     C
    C   1.0     0.099520     0.507703     0.974879  Biso 1.000000     C
    C   1.0     0.599514     0.007718     0.974880  Biso 1.000000     C
    C   1.0     0.599514     0.507704     0.974879  Biso 1.000000     C
    C   1.0     0.210084     0.287285     0.911249  Biso 1.000000     C
    C   1.0     0.210087     0.787279     0.911247  Biso 1.000000     C
    C   1.0     0.710075     0.287285     0.911249  Biso 1.000000     C
    C   1.0     0.710079     0.787280     0.911248  Biso 1.000000     C
    C   1.0     0.361621     0.056090     0.294382  Biso 1.000000     C
    C   1.0     0.361618     0.556086     0.294381  Biso 1.000000     C
    C   1.0     0.861613     0.056098     0.294381  Biso 1.000000     C
    C   1.0     0.861611     0.556078     0.294382  Biso 1.000000     C
    C   1.0     0.442150     0.056464     0.303470  Biso 1.000000     C
    C   1.0     0.442148     0.556453     0.303471  Biso 1.000000     C
    C   1.0     0.942143     0.056466     0.303470  Biso 1.000000     C
    C   1.0     0.942140     0.556454     0.303470  Biso 1.000000     C
    C   1.0     0.004485     0.077003     0.219362  Biso 1.000000     C
    C   1.0     0.004484     0.576986     0.219363  Biso 1.000000     C
    C   1.0     0.504479     0.076998     0.219364  Biso 1.000000     C
    C   1.0     0.504475     0.576992     0.219363  Biso 1.000000     C
    C   1.0     0.084941     0.077708     0.228500  Biso 1.000000     C
    C   1.0     0.084939     0.577693     0.228501  Biso 1.000000     C
    C   1.0     0.584934     0.077703     0.228501  Biso 1.000000     C
    C   1.0     0.584931     0.577696     0.228501  Biso 1.000000     C
    C   1.0     0.222618     0.216641     0.234453  Biso 1.000000     C
    C   1.0     0.222617     0.716630     0.234454  Biso 1.000000     C
    C   1.0     0.722613     0.216641     0.234454  Biso 1.000000     C
    C   1.0     0.722607     0.716630     0.234453  Biso 1.000000     C
    C   1.0     0.227069     0.301055     0.221964  Biso 1.000000     C
    C   1.0     0.227072     0.801042     0.221965  Biso 1.000000     C
    C   1.0     0.727069     0.301054     0.221965  Biso 1.000000     C
    C   1.0     0.727058     0.801044     0.221965  Biso 1.000000     C
    C   1.0     0.214503     0.332023     0.303839  Biso 1.000000     C
    C   1.0     0.214497     0.832012     0.303841  Biso 1.000000     C
    C   1.0     0.714494     0.332024     0.303840  Biso 1.000000     C
    C   1.0     0.714494     0.832011     0.303840  Biso 1.000000     C
    C   1.0     0.220704     0.416280     0.290668  Biso 1.000000     C
    C   1.0     0.220708     0.916267     0.290669  Biso 1.000000     C
    C   1.0     0.720705     0.416279     0.290668  Biso 1.000000     C
    C   1.0     0.720694     0.916268     0.290670  Biso 1.000000     C
    N   1.0     0.119077     0.051720     0.529224  Biso 1.000000     N
    N   1.0     0.119076     0.551709     0.529224  Biso 1.000000     N
    N   1.0     0.619070     0.051720     0.529224  Biso 1.000000     N
    N   1.0     0.619069     0.551710     0.529223  Biso 1.000000     N
    N   1.0     0.325480     0.079732     0.000000  Biso 1.000000     N
    N   1.0     0.325478     0.579722     0.000000  Biso 1.000000     N
    N   1.0     0.825472     0.079731     0.000000  Biso 1.000000     N
    N   1.0     0.825471     0.579722     0.000000  Biso 1.000000     N
    O   1.0     0.119465     0.024772     0.861421  Biso 1.000000     O
    O   1.0     0.119466     0.524757     0.861420  Biso 1.000000     O
    O   1.0     0.619459     0.024774     0.861421  Biso 1.000000     O
    O   1.0     0.619460     0.524759     0.861420  Biso 1.000000     O
    O   1.0     0.174905     0.364501     0.905318  Biso 1.000000     O
    O   1.0     0.174905     0.864495     0.905318  Biso 1.000000     O
    O   1.0     0.674897     0.364502     0.905318  Biso 1.000000     O
    O   1.0     0.674897     0.864495     0.905318  Biso 1.000000     O
    O   1.0     0.305707     0.052866     0.379755  Biso 1.000000     O
    O   1.0     0.305704     0.552854     0.379756  Biso 1.000000     O
    O   1.0     0.805700     0.052866     0.379755  Biso 1.000000     O
    O   1.0     0.805698     0.552854     0.379755  Biso 1.000000     O
    O   1.0     0.354185     0.059563     0.204422  Biso 1.000000     O
    O   1.0     0.354182     0.559553     0.204423  Biso 1.000000     O
    O   1.0     0.854177     0.059564     0.204423  Biso 1.000000     O
    O   1.0     0.854175     0.559552     0.204422  Biso 1.000000     O
    O   1.0     0.093700     0.059534     0.320780  Biso 1.000000     O
    O   1.0     0.093697     0.559522     0.320782  Biso 1.000000     O
    O   1.0     0.593692     0.059533     0.320782  Biso 1.000000     O
    O   1.0     0.593690     0.559522     0.320781  Biso 1.000000     O
    O   1.0     0.139395     0.095731     0.141548  Biso 1.000000     O
    O   1.0     0.139392     0.595719     0.141549  Biso 1.000000     O
    O   1.0     0.639387     0.095731     0.141549  Biso 1.000000     O
    O   1.0     0.639385     0.595720     0.141549  Biso 1.000000     O
    O   1.0     0.190539     0.174474     0.325673  Biso 1.000000     O
    O   1.0     0.190537     0.674462     0.325673  Biso 1.000000     O
    O   1.0     0.690532     0.174474     0.325673  Biso 1.000000     O
    O   1.0     0.690529     0.674462     0.325673  Biso 1.000000     O
    O   1.0     0.253020     0.193474     0.150012  Biso 1.000000     O
    O   1.0     0.253017     0.693463     0.150012  Biso 1.000000     O
    O   1.0     0.753012     0.193474     0.150012  Biso 1.000000     O
    O   1.0     0.753010     0.693463     0.150012  Biso 1.000000     O
    O   1.0     0.206635     0.437418     0.375980  Biso 1.000000     O
    O   1.0     0.206633     0.937406     0.375981  Biso 1.000000     O
    O   1.0     0.706629     0.437418     0.375981  Biso 1.000000     O
    O   1.0     0.706626     0.937406     0.375981  Biso 1.000000     O
    O   1.0     0.238532     0.460344     0.197071  Biso 1.000000     O
    O   1.0     0.238528     0.960332     0.197072  Biso 1.000000     O
    O   1.0     0.738525     0.460344     0.197071  Biso 1.000000     O
    O   1.0     0.738520     0.960332     0.197073  Biso 1.000000     O
   Zn   1.0     0.253355     0.078121     0.151766  Biso 1.000000    Zn
   Zn   1.0     0.253353     0.578110     0.151767  Biso 1.000000    Zn
   Zn   1.0     0.753348     0.078121     0.151767  Biso 1.000000    Zn
   Zn   1.0     0.753346     0.578110     0.151767  Biso 1.000000    Zn
   Zn   1.0     0.191432     0.053340     0.376406  Biso 1.000000    Zn
   Zn   1.0     0.191430     0.553328     0.376406  Biso 1.000000    Zn
   Zn   1.0     0.691425     0.053340     0.376406  Biso 1.000000    Zn
   Zn   1.0     0.691423     0.553328     0.376406  Biso 1.000000    Zn
