#======================================================================

# CRYSTAL DATA

#----------------------------------------------------------------------

data_VESTA_phase_1


_pd_phase_name                         MOF
_cell_length_a                         21.46800
_cell_length_b                         21.44700
_cell_length_c                         21.43300
_cell_angle_alpha                      105.91000
_cell_angle_beta                       106.17200
_cell_angle_gamma                      105.81200
_symmetry_space_group_name_H-M         "P 1"
_symmetry_Int_Tables_number            1

loop_
_symmetry_equiv_pos_as_xyz
   "x, y, z"

loop_
   _atom_site_label
   _atom_site_occupancy
   _atom_site_fract_x
   _atom_site_fract_y
   _atom_site_fract_z
   _atom_site_adp_type
   _atom_site_B_iso_or_equiv
   _atom_site_type_symbol
    H   1.0     0.175351     0.178614     0.073648  Biso 1.000000     H
    H   1.0     0.175522     0.178666     0.573749  Biso 1.000000     H
    H   1.0     0.175261     0.678538     0.073708  Biso 1.000000     H
    H   1.0     0.175366     0.678559     0.573663  Biso 1.000000     H
    H   1.0     0.675405     0.178571     0.073618  Biso 1.000000     H
    H   1.0     0.675329     0.178650     0.573605  Biso 1.000000     H
    H   1.0     0.675384     0.678632     0.073541  Biso 1.000000     H
    H   1.0     0.675357     0.678381     0.573540  Biso 1.000000     H
    H   1.0     0.082874     0.138764     0.036232  Biso 1.000000     H
    H   1.0     0.083032     0.138825     0.536356  Biso 1.000000     H
    H   1.0     0.082781     0.638654     0.036241  Biso 1.000000     H
    H   1.0     0.082882     0.638670     0.536208  Biso 1.000000     H
    H   1.0     0.582929     0.138810     0.036288  Biso 1.000000     H
    H   1.0     0.582851     0.138747     0.536248  Biso 1.000000     H
    H   1.0     0.582907     0.638747     0.036191  Biso 1.000000     H
    H   1.0     0.582882     0.638529     0.536235  Biso 1.000000     H
    H   1.0     0.073049     0.174930     0.179191  Biso 1.000000     H
    H   1.0     0.072988     0.174863     0.678998  Biso 1.000000     H
    H   1.0     0.073016     0.675020     0.179126  Biso 1.000000     H
    H   1.0     0.072979     0.674917     0.679050  Biso 1.000000     H
    H   1.0     0.573241     0.174954     0.179142  Biso 1.000000     H
    H   1.0     0.573027     0.175027     0.679057  Biso 1.000000     H
    H   1.0     0.573140     0.674855     0.179114  Biso 1.000000     H
    H   1.0     0.573175     0.674994     0.679115  Biso 1.000000     H
    H   1.0     0.035480     0.082503     0.139218  Biso 1.000000     H
    H   1.0     0.035511     0.082429     0.639054  Biso 1.000000     H
    H   1.0     0.035602     0.582579     0.139185  Biso 1.000000     H
    H   1.0     0.035480     0.582486     0.639123  Biso 1.000000     H
    H   1.0     0.535690     0.082508     0.139213  Biso 1.000000     H
    H   1.0     0.535579     0.082583     0.639201  Biso 1.000000     H
    H   1.0     0.535496     0.582429     0.139142  Biso 1.000000     H
    H   1.0     0.535672     0.582567     0.639167  Biso 1.000000     H
    H   1.0     0.179581     0.072633     0.175854  Biso 1.000000     H
    H   1.0     0.179548     0.072675     0.675911  Biso 1.000000     H
    H   1.0     0.179488     0.572796     0.175886  Biso 1.000000     H
    H   1.0     0.179386     0.572780     0.675675  Biso 1.000000     H
    H   1.0     0.679411     0.072606     0.175787  Biso 1.000000     H
    H   1.0     0.679448     0.072729     0.675730  Biso 1.000000     H
    H   1.0     0.679565     0.572775     0.175894  Biso 1.000000     H
    H   1.0     0.679467     0.572815     0.675894  Biso 1.000000     H
    H   1.0     0.139262     0.035613     0.083242  Biso 1.000000     H
    H   1.0     0.139277     0.035676     0.583295  Biso 1.000000     H
    H   1.0     0.139167     0.535704     0.083270  Biso 1.000000     H
    H   1.0     0.139093     0.535603     0.583062  Biso 1.000000     H
    H   1.0     0.639088     0.035573     0.083167  Biso 1.000000     H
    H   1.0     0.639087     0.035564     0.583124  Biso 1.000000     H
    H   1.0     0.639264     0.535715     0.083271  Biso 1.000000     H
    H   1.0     0.639107     0.535730     0.583275  Biso 1.000000     H
    H   1.0     0.324603     0.321660     0.426468  Biso 1.000000     H
    H   1.0     0.324566     0.321406     0.926469  Biso 1.000000     H
    H   1.0     0.324624     0.821389     0.426405  Biso 1.000000     H
    H   1.0     0.324542     0.821453     0.926391  Biso 1.000000     H
    H   1.0     0.824588     0.321491     0.426352  Biso 1.000000     H
    H   1.0     0.824684     0.321494     0.926296  Biso 1.000000     H
    H   1.0     0.824427     0.821366     0.426258  Biso 1.000000     H
    H   1.0     0.824596     0.821427     0.926357  Biso 1.000000     H
    H   1.0     0.417078     0.361509     0.463778  Biso 1.000000     H
    H   1.0     0.417044     0.361287     0.963820  Biso 1.000000     H
    H   1.0     0.417101     0.861289     0.463758  Biso 1.000000     H
    H   1.0     0.417018     0.861217     0.963715  Biso 1.000000     H
    H   1.0     0.917072     0.361376     0.463808  Biso 1.000000     H
    H   1.0     0.917164     0.361380     0.963761  Biso 1.000000     H
    H   1.0     0.916916     0.861211     0.463648  Biso 1.000000     H
    H   1.0     0.917073     0.861275     0.963775  Biso 1.000000     H
    H   1.0     0.426775     0.325035     0.320889  Biso 1.000000     H
    H   1.0     0.426812     0.325177     0.820904  Biso 1.000000     H
    H   1.0     0.426928     0.825020     0.320960  Biso 1.000000     H
    H   1.0     0.426708     0.825089     0.820867  Biso 1.000000     H
    H   1.0     0.926970     0.325115     0.320954  Biso 1.000000     H
    H   1.0     0.926925     0.325014     0.820884  Biso 1.000000     H
    H   1.0     0.926957     0.825173     0.321005  Biso 1.000000     H
    H   1.0     0.926908     0.825108     0.820816  Biso 1.000000     H
    H   1.0     0.464274     0.417462     0.360835  Biso 1.000000     H
    H   1.0     0.464459     0.417603     0.860876  Biso 1.000000     H
    H   1.0     0.464377     0.917464     0.360816  Biso 1.000000     H
    H   1.0     0.464262     0.917534     0.860799  Biso 1.000000     H
    H   1.0     0.964466     0.417547     0.360883  Biso 1.000000     H
    H   1.0     0.964341     0.417456     0.860816  Biso 1.000000     H
    H   1.0     0.964438     0.917608     0.360948  Biso 1.000000     H
    H   1.0     0.964473     0.917534     0.860792  Biso 1.000000     H
    H   1.0     0.320469     0.427213     0.324117  Biso 1.000000     H
    H   1.0     0.320380     0.427254     0.824112  Biso 1.000000     H
    H   1.0     0.320499     0.927310     0.324273  Biso 1.000000     H
    H   1.0     0.320541     0.927431     0.824221  Biso 1.000000     H
    H   1.0     0.820569     0.427246     0.324332  Biso 1.000000     H
    H   1.0     0.820456     0.427243     0.824114  Biso 1.000000     H
    H   1.0     0.820406     0.927375     0.324091  Biso 1.000000     H
    H   1.0     0.820374     0.927405     0.824160  Biso 1.000000     H
    H   1.0     0.360830     0.464302     0.416735  Biso 1.000000     H
    H   1.0     0.360680     0.464317     0.916735  Biso 1.000000     H
    H   1.0     0.360860     0.964474     0.416880  Biso 1.000000     H
    H   1.0     0.360861     0.964463     0.916840  Biso 1.000000     H
    H   1.0     0.860862     0.464423     0.416946  Biso 1.000000     H
    H   1.0     0.860778     0.464329     0.916730  Biso 1.000000     H
    H   1.0     0.860676     0.964366     0.416706  Biso 1.000000     H
    H   1.0     0.860695     0.964424     0.916772  Biso 1.000000     H
    C   1.0     0.133498     0.100141     0.470752  Biso 1.000000     C
    C   1.0     0.133370     0.100039     0.970701  Biso 1.000000     C
    C   1.0     0.133432     0.600047     0.470669  Biso 1.000000     C
    C   1.0     0.133348     0.600020     0.970742  Biso 1.000000     C
    C   1.0     0.633317     0.100119     0.470618  Biso 1.000000     C
    C   1.0     0.633297     0.100078     0.970609  Biso 1.000000     C
    C   1.0     0.633280     0.599845     0.470544  Biso 1.000000     C
    C   1.0     0.633370     0.599958     0.970653  Biso 1.000000     C
    C   1.0     0.129674     0.160076     0.024944  Biso 1.000000     C
    C   1.0     0.129827     0.160151     0.525067  Biso 1.000000     C
    C   1.0     0.129597     0.660005     0.024994  Biso 1.000000     C
    C   1.0     0.129694     0.660029     0.524958  Biso 1.000000     C
    C   1.0     0.629701     0.160103     0.024953  Biso 1.000000     C
    C   1.0     0.629617     0.160108     0.524931  Biso 1.000000     C
    C   1.0     0.629677     0.660035     0.024852  Biso 1.000000     C
    C   1.0     0.629632     0.659860     0.524882  Biso 1.000000     C
    C   1.0     0.122209     0.222556     0.008012  Biso 1.000000     C
    C   1.0     0.122363     0.222639     0.508164  Biso 1.000000     C
    C   1.0     0.122126     0.722486     0.008080  Biso 1.000000     C
    C   1.0     0.122204     0.722507     0.508047  Biso 1.000000     C
    C   1.0     0.622282     0.222650     0.008157  Biso 1.000000     C
    C   1.0     0.622073     0.222576     0.508030  Biso 1.000000     C
    C   1.0     0.622149     0.722460     0.007843  Biso 1.000000     C
    C   1.0     0.622104     0.722363     0.508040  Biso 1.000000     C
    C   1.0     0.470380     0.133490     0.100341  Biso 1.000000     C
    C   1.0     0.470172     0.133437     0.600213  Biso 1.000000     C
    C   1.0     0.470314     0.633525     0.100294  Biso 1.000000     C
    C   1.0     0.470329     0.633504     0.600287  Biso 1.000000     C
    C   1.0     0.970227     0.133532     0.100368  Biso 1.000000     C
    C   1.0     0.970152     0.133354     0.600182  Biso 1.000000     C
    C   1.0     0.970163     0.633423     0.100304  Biso 1.000000     C
    C   1.0     0.970154     0.633423     0.600213  Biso 1.000000     C
    C   1.0     0.024375     0.129544     0.160565  Biso 1.000000     C
    C   1.0     0.024352     0.129436     0.660386  Biso 1.000000     C
    C   1.0     0.024408     0.629562     0.160516  Biso 1.000000     C
    C   1.0     0.024329     0.629505     0.660436  Biso 1.000000     C
    C   1.0     0.524584     0.129553     0.160540  Biso 1.000000     C
    C   1.0     0.524402     0.129596     0.660473  Biso 1.000000     C
    C   1.0     0.524437     0.629502     0.160485  Biso 1.000000     C
    C   1.0     0.524525     0.629582     0.660504  Biso 1.000000     C
    C   1.0     0.007583     0.122413     0.223135  Biso 1.000000     C
    C   1.0     0.007609     0.122294     0.722975  Biso 1.000000     C
    C   1.0     0.007676     0.622384     0.223099  Biso 1.000000     C
    C   1.0     0.007580     0.622379     0.723027  Biso 1.000000     C
    C   1.0     0.507809     0.122469     0.223128  Biso 1.000000     C
    C   1.0     0.507635     0.122525     0.723073  Biso 1.000000     C
    C   1.0     0.507655     0.622409     0.223066  Biso 1.000000     C
    C   1.0     0.507798     0.622434     0.723096  Biso 1.000000     C
    C   1.0     0.100715     0.470250     0.133935  Biso 1.000000     C
    C   1.0     0.100678     0.470224     0.633812  Biso 1.000000     C
    C   1.0     0.100682     0.970172     0.133858  Biso 1.000000     C
    C   1.0     0.100716     0.970164     0.633855  Biso 1.000000     C
    C   1.0     0.600757     0.470254     0.133910  Biso 1.000000     C
    C   1.0     0.600706     0.470269     0.633954  Biso 1.000000     C
    C   1.0     0.600683     0.970036     0.133780  Biso 1.000000     C
    C   1.0     0.600702     0.970204     0.633898  Biso 1.000000     C
    C   1.0     0.160741     0.024084     0.130099  Biso 1.000000     C
    C   1.0     0.160756     0.024142     0.630148  Biso 1.000000     C
    C   1.0     0.160696     0.524236     0.130156  Biso 1.000000     C
    C   1.0     0.160631     0.524194     0.629984  Biso 1.000000     C
    C   1.0     0.660637     0.024075     0.130027  Biso 1.000000     C
    C   1.0     0.660648     0.024140     0.630030  Biso 1.000000     C
    C   1.0     0.660762     0.524226     0.130150  Biso 1.000000     C
    C   1.0     0.660662     0.524261     0.630152  Biso 1.000000     C
    C   1.0     0.223016     0.007016     0.122435  Biso 1.000000     C
    C   1.0     0.223066     0.007135     0.622526  Biso 1.000000     C
    C   1.0     0.223018     0.507268     0.122519  Biso 1.000000     C
    C   1.0     0.222993     0.507264     0.622433  Biso 1.000000     C
    C   1.0     0.722962     0.007126     0.122375  Biso 1.000000     C
    C   1.0     0.722950     0.007125     0.622413  Biso 1.000000     C
    C   1.0     0.723052     0.507178     0.122532  Biso 1.000000     C
    C   1.0     0.722952     0.507257     0.622480  Biso 1.000000     C
    C   1.0     0.366582     0.400079     0.029359  Biso 1.000000     C
    C   1.0     0.366678     0.400191     0.529466  Biso 1.000000     C
    C   1.0     0.366654     0.899954     0.029395  Biso 1.000000     C
    C   1.0     0.366639     0.899921     0.529390  Biso 1.000000     C
    C   1.0     0.866598     0.400014     0.029261  Biso 1.000000     C
    C   1.0     0.866523     0.399998     0.529350  Biso 1.000000     C
    C   1.0     0.866576     0.899999     0.029306  Biso 1.000000     C
    C   1.0     0.866451     0.899896     0.529252  Biso 1.000000     C
    C   1.0     0.370326     0.340178     0.475127  Biso 1.000000     C
    C   1.0     0.370273     0.340000     0.975158  Biso 1.000000     C
    C   1.0     0.370337     0.839930     0.475078  Biso 1.000000     C
    C   1.0     0.370249     0.839925     0.975054  Biso 1.000000     C
    C   1.0     0.870259     0.340017     0.475057  Biso 1.000000     C
    C   1.0     0.870349     0.340029     0.975009  Biso 1.000000     C
    C   1.0     0.870123     0.839886     0.474940  Biso 1.000000     C
    C   1.0     0.870272     0.839963     0.975061  Biso 1.000000     C
    C   1.0     0.377849     0.277672     0.491965  Biso 1.000000     C
    C   1.0     0.377796     0.277573     0.992165  Biso 1.000000     C
    C   1.0     0.377880     0.777461     0.491978  Biso 1.000000     C
    C   1.0     0.377674     0.777381     0.991855  Biso 1.000000     C
    C   1.0     0.877746     0.277536     0.491963  Biso 1.000000     C
    C   1.0     0.877824     0.277551     0.991927  Biso 1.000000     C
    C   1.0     0.877592     0.777401     0.491849  Biso 1.000000     C
    C   1.0     0.877734     0.777482     0.991991  Biso 1.000000     C
    C   1.0     0.029791     0.366611     0.399797  Biso 1.000000     C
    C   1.0     0.029778     0.366613     0.899706  Biso 1.000000     C
    C   1.0     0.029793     0.866680     0.399821  Biso 1.000000     C
    C   1.0     0.029729     0.866508     0.899643  Biso 1.000000     C
    C   1.0     0.529622     0.366530     0.399717  Biso 1.000000     C
    C   1.0     0.529644     0.366506     0.899718  Biso 1.000000     C
    C   1.0     0.529785     0.866609     0.399799  Biso 1.000000     C
    C   1.0     0.529569     0.866548     0.899668  Biso 1.000000     C
    C   1.0     0.475424     0.370449     0.339500  Biso 1.000000     C
    C   1.0     0.475515     0.370530     0.839531  Biso 1.000000     C
    C   1.0     0.475553     0.870452     0.339543  Biso 1.000000     C
    C   1.0     0.475366     0.870489     0.839470  Biso 1.000000     C
    C   1.0     0.975619     0.370529     0.339571  Biso 1.000000     C
    C   1.0     0.975533     0.370470     0.839490  Biso 1.000000     C
    C   1.0     0.975594     0.870598     0.339617  Biso 1.000000     C
    C   1.0     0.975582     0.870496     0.839445  Biso 1.000000     C
    C   1.0     0.492153     0.377596     0.276909  Biso 1.000000     C
    C   1.0     0.492293     0.377621     0.776948  Biso 1.000000     C
    C   1.0     0.492316     0.877523     0.276941  Biso 1.000000     C
    C   1.0     0.492142     0.877572     0.776882  Biso 1.000000     C
    C   1.0     0.992369     0.377660     0.276983  Biso 1.000000     C
    C   1.0     0.992266     0.377640     0.776905  Biso 1.000000     C
    C   1.0     0.992337     0.877739     0.277026  Biso 1.000000     C
    C   1.0     0.992373     0.877631     0.776876  Biso 1.000000     C
    C   1.0     0.399245     0.029835     0.366107  Biso 1.000000     C
    C   1.0     0.399260     0.030006     0.866231  Biso 1.000000     C
    C   1.0     0.399230     0.529758     0.366051  Biso 1.000000     C
    C   1.0     0.399190     0.529775     0.866095  Biso 1.000000     C
    C   1.0     0.899239     0.029886     0.366154  Biso 1.000000     C
    C   1.0     0.899275     0.029865     0.866156  Biso 1.000000     C
    C   1.0     0.899283     0.529801     0.366197  Biso 1.000000     C
    C   1.0     0.899232     0.529787     0.866069  Biso 1.000000     C
    C   1.0     0.339275     0.475769     0.369856  Biso 1.000000     C
    C   1.0     0.339184     0.475805     0.869855  Biso 1.000000     C
    C   1.0     0.339300     0.975899     0.369974  Biso 1.000000     C
    C   1.0     0.339310     0.975961     0.869981  Biso 1.000000     C
    C   1.0     0.839326     0.475832     0.370024  Biso 1.000000     C
    C   1.0     0.839250     0.475801     0.869846  Biso 1.000000     C
    C   1.0     0.839198     0.975906     0.369857  Biso 1.000000     C
    C   1.0     0.839216     0.975954     0.869915  Biso 1.000000     C
    C   1.0     0.276983     0.492772     0.377527  Biso 1.000000     C
    C   1.0     0.276894     0.492854     0.877470  Biso 1.000000     C
    C   1.0     0.276997     0.992914     0.377591  Biso 1.000000     C
    C   1.0     0.276981     0.992901     0.877631  Biso 1.000000     C
    C   1.0     0.776969     0.492771     0.377578  Biso 1.000000     C
    C   1.0     0.776930     0.492771     0.877487  Biso 1.000000     C
    C   1.0     0.776889     0.992912     0.377481  Biso 1.000000     C
    C   1.0     0.776942     0.993023     0.877580  Biso 1.000000     C
    O   1.0     0.105719     0.085167     0.404511  Biso 1.000000     O
    O   1.0     0.105630     0.085020     0.904445  Biso 1.000000     O
    O   1.0     0.105586     0.584982     0.404415  Biso 1.000000     O
    O   1.0     0.105604     0.585026     0.904484  Biso 1.000000     O
    O   1.0     0.605550     0.085130     0.404378  Biso 1.000000     O
    O   1.0     0.605606     0.085188     0.904378  Biso 1.000000     O
    O   1.0     0.605599     0.584943     0.404313  Biso 1.000000     O
    O   1.0     0.605495     0.584776     0.904373  Biso 1.000000     O
    O   1.0     0.164221     0.063428     0.493617  Biso 1.000000     O
    O   1.0     0.164083     0.063348     0.993626  Biso 1.000000     O
    O   1.0     0.164276     0.563434     0.493573  Biso 1.000000     O
    O   1.0     0.164118     0.563361     0.993641  Biso 1.000000     O
    O   1.0     0.664067     0.063432     0.493502  Biso 1.000000     O
    O   1.0     0.663899     0.063268     0.993454  Biso 1.000000     O
    O   1.0     0.663904     0.563055     0.493402  Biso 1.000000     O
    O   1.0     0.664222     0.563394     0.993641  Biso 1.000000     O
    O   1.0     0.075498     0.215754     0.451819  Biso 1.000000     O
    O   1.0     0.075446     0.215665     0.951611  Biso 1.000000     O
    O   1.0     0.075382     0.715602     0.451670  Biso 1.000000     O
    O   1.0     0.075363     0.715588     0.951669  Biso 1.000000     O
    O   1.0     0.575225     0.215675     0.451673  Biso 1.000000     O
    O   1.0     0.575641     0.215856     0.951708  Biso 1.000000     O
    O   1.0     0.575325     0.715508     0.451657  Biso 1.000000     O
    O   1.0     0.575305     0.715495     0.951465  Biso 1.000000     O
    O   1.0     0.161724     0.282669     0.055112  Biso 1.000000     O
    O   1.0     0.161980     0.282758     0.555187  Biso 1.000000     O
    O   1.0     0.161634     0.782598     0.055173  Biso 1.000000     O
    O   1.0     0.161778     0.782627     0.555098  Biso 1.000000     O
    O   1.0     0.661684     0.282718     0.055374  Biso 1.000000     O
    O   1.0     0.661632     0.282700     0.555078  Biso 1.000000     O
    O   1.0     0.661707     0.782605     0.054861  Biso 1.000000     O
    O   1.0     0.661599     0.782462     0.555170  Biso 1.000000     O
    O   1.0     0.404301     0.106305     0.085377  Biso 1.000000     O
    O   1.0     0.404103     0.106254     0.585233  Biso 1.000000     O
    O   1.0     0.404204     0.606247     0.085158  Biso 1.000000     O
    O   1.0     0.404255     0.606455     0.585385  Biso 1.000000     O
    O   1.0     0.904135     0.106398     0.085359  Biso 1.000000     O
    O   1.0     0.904076     0.106161     0.585199  Biso 1.000000     O
    O   1.0     0.904091     0.606095     0.085264  Biso 1.000000     O
    O   1.0     0.904064     0.606163     0.585151  Biso 1.000000     O
    O   1.0     0.493175     0.163862     0.063525  Biso 1.000000     O
    O   1.0     0.492997     0.163762     0.563367  Biso 1.000000     O
    O   1.0     0.493213     0.664033     0.063624  Biso 1.000000     O
    O   1.0     0.493152     0.663719     0.563374  Biso 1.000000     O
    O   1.0     0.993096     0.163878     0.063567  Biso 1.000000     O
    O   1.0     0.992962     0.163721     0.563363  Biso 1.000000     O
    O   1.0     0.992946     0.663872     0.063527  Biso 1.000000     O
    O   1.0     0.992990     0.663843     0.563446  Biso 1.000000     O
    O   1.0     0.451562     0.075875     0.216103  Biso 1.000000     O
    O   1.0     0.451412     0.075922     0.716062  Biso 1.000000     O
    O   1.0     0.451262     0.576059     0.216072  Biso 1.000000     O
    O   1.0     0.451469     0.575977     0.716099  Biso 1.000000     O
    O   1.0     0.951317     0.075876     0.216085  Biso 1.000000     O
    O   1.0     0.951354     0.075765     0.715968  Biso 1.000000     O
    O   1.0     0.951483     0.575745     0.216062  Biso 1.000000     O
    O   1.0     0.951268     0.575945     0.716034  Biso 1.000000     O
    O   1.0     0.054513     0.161930     0.283473  Biso 1.000000     O
    O   1.0     0.054563     0.161802     0.783299  Biso 1.000000     O
    O   1.0     0.054561     0.661961     0.283436  Biso 1.000000     O
    O   1.0     0.054594     0.661805     0.783343  Biso 1.000000     O
    O   1.0     0.554678     0.162068     0.283460  Biso 1.000000     O
    O   1.0     0.554510     0.162154     0.783406  Biso 1.000000     O
    O   1.0     0.554705     0.661772     0.283373  Biso 1.000000     O
    O   1.0     0.554803     0.661823     0.783413  Biso 1.000000     O
    O   1.0     0.085696     0.404119     0.106534  Biso 1.000000     O
    O   1.0     0.085768     0.404097     0.606594  Biso 1.000000     O
    O   1.0     0.085606     0.904021     0.106506  Biso 1.000000     O
    O   1.0     0.085828     0.904041     0.606636  Biso 1.000000     O
    O   1.0     0.585779     0.404128     0.106590  Biso 1.000000     O
    O   1.0     0.585858     0.404154     0.606766  Biso 1.000000     O
    O   1.0     0.585887     0.903934     0.106572  Biso 1.000000     O
    O   1.0     0.585927     0.904083     0.606860  Biso 1.000000     O
    O   1.0     0.064027     0.493273     0.164309  Biso 1.000000     O
    O   1.0     0.063894     0.493260     0.664028  Biso 1.000000     O
    O   1.0     0.064004     0.993262     0.164194  Biso 1.000000     O
    O   1.0     0.063873     0.993167     0.664007  Biso 1.000000     O
    O   1.0     0.564031     0.493295     0.164218  Biso 1.000000     O
    O   1.0     0.563889     0.493270     0.664151  Biso 1.000000     O
    O   1.0     0.563842     0.992979     0.163982  Biso 1.000000     O
    O   1.0     0.563849     0.993226     0.664014  Biso 1.000000     O
    O   1.0     0.215951     0.450760     0.076124  Biso 1.000000     O
    O   1.0     0.215991     0.450765     0.576074  Biso 1.000000     O
    O   1.0     0.215872     0.950567     0.075941  Biso 1.000000     O
    O   1.0     0.215964     0.950702     0.576021  Biso 1.000000     O
    O   1.0     0.715924     0.450738     0.075998  Biso 1.000000     O
    O   1.0     0.715827     0.450789     0.575989  Biso 1.000000     O
    O   1.0     0.715872     0.950741     0.075809  Biso 1.000000     O
    O   1.0     0.715845     0.950634     0.575990  Biso 1.000000     O
    O   1.0     0.283223     0.054170     0.161555  Biso 1.000000     O
    O   1.0     0.283255     0.054289     0.661657  Biso 1.000000     O
    O   1.0     0.283185     0.554515     0.161535  Biso 1.000000     O
    O   1.0     0.283129     0.554559     0.661481  Biso 1.000000     O
    O   1.0     0.783144     0.054271     0.161560  Biso 1.000000     O
    O   1.0     0.783135     0.054319     0.661487  Biso 1.000000     O
    O   1.0     0.783255     0.554295     0.161712  Biso 1.000000     O
    O   1.0     0.783148     0.554423     0.661571  Biso 1.000000     O
    O   1.0     0.394459     0.415262     0.095638  Biso 1.000000     O
    O   1.0     0.394344     0.415082     0.595696  Biso 1.000000     O
    O   1.0     0.394345     0.914845     0.095626  Biso 1.000000     O
    O   1.0     0.394396     0.914905     0.595631  Biso 1.000000     O
    O   1.0     0.894338     0.415006     0.095518  Biso 1.000000     O
    O   1.0     0.894373     0.415063     0.595603  Biso 1.000000     O
    O   1.0     0.894320     0.915020     0.095562  Biso 1.000000     O
    O   1.0     0.894224     0.914868     0.595494  Biso 1.000000     O
    O   1.0     0.335730     0.436644     0.006370  Biso 1.000000     O
    O   1.0     0.336065     0.436990     0.506610  Biso 1.000000     O
    O   1.0     0.336048     0.936760     0.006549  Biso 1.000000     O
    O   1.0     0.335898     0.936614     0.506505  Biso 1.000000     O
    O   1.0     0.835831     0.436675     0.006362  Biso 1.000000     O
    O   1.0     0.835674     0.436608     0.506448  Biso 1.000000     O
    O   1.0     0.835859     0.936688     0.006382  Biso 1.000000     O
    O   1.0     0.835730     0.936610     0.506386  Biso 1.000000     O
    O   1.0     0.424638     0.284536     0.048543  Biso 1.000000     O
    O   1.0     0.424622     0.284522     0.548350  Biso 1.000000     O
    O   1.0     0.424323     0.784176     0.048299  Biso 1.000000     O
    O   1.0     0.424719     0.784359     0.548339  Biso 1.000000     O
    O   1.0     0.924591     0.284453     0.048337  Biso 1.000000     O
    O   1.0     0.924567     0.284437     0.548339  Biso 1.000000     O
    O   1.0     0.924491     0.784371     0.048396  Biso 1.000000     O
    O   1.0     0.924464     0.784292     0.548191  Biso 1.000000     O
    O   1.0     0.338356     0.217574     0.444831  Biso 1.000000     O
    O   1.0     0.338234     0.217429     0.945148  Biso 1.000000     O
    O   1.0     0.338327     0.717337     0.444923  Biso 1.000000     O
    O   1.0     0.338263     0.717310     0.944646  Biso 1.000000     O
    O   1.0     0.838171     0.217418     0.444909  Biso 1.000000     O
    O   1.0     0.838313     0.217437     0.944839  Biso 1.000000     O
    O   1.0     0.837971     0.717280     0.444832  Biso 1.000000     O
    O   1.0     0.838220     0.717369     0.944889  Biso 1.000000     O
    O   1.0     0.095883     0.393882     0.414871  Biso 1.000000     O
    O   1.0     0.095851     0.393945     0.914748  Biso 1.000000     O
    O   1.0     0.095869     0.893881     0.414811  Biso 1.000000     O
    O   1.0     0.095820     0.893638     0.914650  Biso 1.000000     O
    O   1.0     0.595695     0.393580     0.414618  Biso 1.000000     O
    O   1.0     0.595753     0.393797     0.914855  Biso 1.000000     O
    O   1.0     0.595853     0.893783     0.414769  Biso 1.000000     O
    O   1.0     0.595647     0.893727     0.914630  Biso 1.000000     O
    O   1.0     0.006952     0.336179     0.436554  Biso 1.000000     O
    O   1.0     0.006994     0.336163     0.936481  Biso 1.000000     O
    O   1.0     0.006981     0.836307     0.436634  Biso 1.000000     O
    O   1.0     0.006858     0.836164     0.936445  Biso 1.000000     O
    O   1.0     0.506801     0.336313     0.436630  Biso 1.000000     O
    O   1.0     0.506752     0.335987     0.936383  Biso 1.000000     O
    O   1.0     0.506963     0.836290     0.436651  Biso 1.000000     O
    O   1.0     0.506772     0.836182     0.936487  Biso 1.000000     O
    O   1.0     0.048682     0.424095     0.283978  Biso 1.000000     O
    O   1.0     0.048466     0.424269     0.783941  Biso 1.000000     O
    O   1.0     0.048594     0.924264     0.284032  Biso 1.000000     O
    O   1.0     0.048640     0.924169     0.783926  Biso 1.000000     O
    O   1.0     0.548481     0.424055     0.283907  Biso 1.000000     O
    O   1.0     0.548681     0.423976     0.783939  Biso 1.000000     O
    O   1.0     0.548538     0.924125     0.283948  Biso 1.000000     O
    O   1.0     0.548392     0.924161     0.783907  Biso 1.000000     O
    O   1.0     0.445151     0.338203     0.216592  Biso 1.000000     O
    O   1.0     0.445247     0.338249     0.716642  Biso 1.000000     O
    O   1.0     0.445441     0.837891     0.216609  Biso 1.000000     O
    O   1.0     0.445270     0.837977     0.716550  Biso 1.000000     O
    O   1.0     0.945356     0.338236     0.216666  Biso 1.000000     O
    O   1.0     0.945377     0.338068     0.716569  Biso 1.000000     O
    O   1.0     0.945380     0.838235     0.216704  Biso 1.000000     O
    O   1.0     0.945443     0.838116     0.716537  Biso 1.000000     O
    O   1.0     0.414018     0.095956     0.393142  Biso 1.000000     O
    O   1.0     0.414046     0.096106     0.893435  Biso 1.000000     O
    O   1.0     0.414086     0.595874     0.393245  Biso 1.000000     O
    O   1.0     0.414173     0.595901     0.893420  Biso 1.000000     O
    O   1.0     0.914120     0.096008     0.393366  Biso 1.000000     O
    O   1.0     0.914355     0.096016     0.893515  Biso 1.000000     O
    O   1.0     0.914186     0.595928     0.393404  Biso 1.000000     O
    O   1.0     0.914255     0.595919     0.893473  Biso 1.000000     O
    O   1.0     0.436103     0.006815     0.335997  Biso 1.000000     O
    O   1.0     0.436105     0.007069     0.836029  Biso 1.000000     O
    O   1.0     0.436041     0.506753     0.335849  Biso 1.000000     O
    O   1.0     0.435911     0.506733     0.835780  Biso 1.000000     O
    O   1.0     0.936085     0.006885     0.336006  Biso 1.000000     O
    O   1.0     0.935950     0.006775     0.835815  Biso 1.000000     O
    O   1.0     0.936079     0.506765     0.335998  Biso 1.000000     O
    O   1.0     0.935918     0.506763     0.835694  Biso 1.000000     O
    O   1.0     0.284102     0.049403     0.424016  Biso 1.000000     O
    O   1.0     0.284064     0.049286     0.924193  Biso 1.000000     O
    O   1.0     0.284105     0.549247     0.424007  Biso 1.000000     O
    O   1.0     0.284023     0.549293     0.924009  Biso 1.000000     O
    O   1.0     0.783991     0.049345     0.423986  Biso 1.000000     O
    O   1.0     0.784088     0.049471     0.924076  Biso 1.000000     O
    O   1.0     0.783983     0.549267     0.423949  Biso 1.000000     O
    O   1.0     0.784000     0.549279     0.923884  Biso 1.000000     O
    O   1.0     0.216789     0.445597     0.338450  Biso 1.000000     O
    O   1.0     0.216691     0.445741     0.838285  Biso 1.000000     O
    O   1.0     0.216812     0.945722     0.338513  Biso 1.000000     O
    O   1.0     0.216802     0.945754     0.838443  Biso 1.000000     O
    O   1.0     0.716828     0.445486     0.338526  Biso 1.000000     O
    O   1.0     0.716762     0.445524     0.838473  Biso 1.000000     O
    O   1.0     0.716700     0.945760     0.338346  Biso 1.000000     O
    O   1.0     0.716735     0.945872     0.838458  Biso 1.000000     O
   Cd   1.0     0.513702     0.115797     0.353308  Biso 1.000000    Cd
   Cd   1.0     0.513765     0.115949     0.853385  Biso 1.000000    Cd
   Cd   1.0     0.513750     0.615673     0.353287  Biso 1.000000    Cd
   Cd   1.0     0.513742     0.615553     0.853217  Biso 1.000000    Cd
   Cd   1.0     0.000000     0.115829     0.353494  Biso 1.000000    Cd
   Cd   1.0     0.000000     0.115698     0.853313  Biso 1.000000    Cd
   Cd   1.0     0.000000     0.615687     0.353346  Biso 1.000000    Cd
   Cd   1.0     0.000000     0.615694     0.853315  Biso 1.000000    Cd
   Cd   1.0     0.353358     0.514451     0.115548  Biso 1.000000    Cd
   Cd   1.0     0.353441     0.514547     0.615699  Biso 1.000000    Cd
   Cd   1.0     0.353535     0.000000     0.115678  Biso 1.000000    Cd
   Cd   1.0     0.353437     0.000000     0.615604  Biso 1.000000    Cd
   Cd   1.0     0.853404     0.514257     0.115660  Biso 1.000000    Cd
   Cd   1.0     0.853303     0.514355     0.615579  Biso 1.000000    Cd
   Cd   1.0     0.853384     0.000000     0.115561  Biso 1.000000    Cd
   Cd   1.0     0.853334     0.000000     0.615555  Biso 1.000000    Cd
   Cd   1.0     0.115816     0.352985     0.514549  Biso 1.000000    Cd
   Cd   1.0     0.115767     0.353010     0.000000  Biso 1.000000    Cd
   Cd   1.0     0.115792     0.852950     0.514516  Biso 1.000000    Cd
   Cd   1.0     0.115630     0.852863     0.000000  Biso 1.000000    Cd
   Cd   1.0     0.615656     0.353019     0.514522  Biso 1.000000    Cd
   Cd   1.0     0.615694     0.352951     0.000000  Biso 1.000000    Cd
   Cd   1.0     0.615673     0.852846     0.514603  Biso 1.000000    Cd
   Cd   1.0     0.615716     0.852926     0.000000  Biso 1.000000    Cd
   Cd   1.0    -0.013828     0.384346     0.146693  Biso 1.000000    Cd
   Cd   1.0    -0.013818     0.384347     0.646666  Biso 1.000000    Cd
   Cd   1.0    -0.013862     0.884339     0.146692  Biso 1.000000    Cd
   Cd   1.0    -0.013866     0.884220     0.646517  Biso 1.000000    Cd
   Cd   1.0     0.486208     0.384476     0.146789  Biso 1.000000    Cd
   Cd   1.0     0.486192     0.384351     0.646724  Biso 1.000000    Cd
   Cd   1.0     0.486184     0.884089     0.146624  Biso 1.000000    Cd
   Cd   1.0     0.486248     0.884243     0.646700  Biso 1.000000    Cd
   Cd   1.0     0.146612    -0.014247     0.384447  Biso 1.000000    Cd
   Cd   1.0     0.146570    -0.014343     0.884451  Biso 1.000000    Cd
   Cd   1.0     0.146641     0.485686     0.384437  Biso 1.000000    Cd
   Cd   1.0     0.146542     0.485775     0.884343  Biso 1.000000    Cd
   Cd   1.0     0.646517    -0.014288     0.384401  Biso 1.000000    Cd
   Cd   1.0     0.646418    -0.014325     0.884332  Biso 1.000000    Cd
   Cd   1.0     0.646513     0.485488     0.384309  Biso 1.000000    Cd
   Cd   1.0     0.646591     0.485587     0.884460  Biso 1.000000    Cd
   Cd   1.0     0.384221     0.147105    -0.014324  Biso 1.000000    Cd
   Cd   1.0     0.384279     0.147190     0.485405  Biso 1.000000    Cd
   Cd   1.0     0.384260     0.647077    -0.014492  Biso 1.000000    Cd
   Cd   1.0     0.384287     0.647011     0.485485  Biso 1.000000    Cd
   Cd   1.0     0.884325     0.147178    -0.014453  Biso 1.000000    Cd
   Cd   1.0     0.884159     0.147096     0.485490  Biso 1.000000    Cd
   Cd   1.0     0.884179     0.647029    -0.014526  Biso 1.000000    Cd
   Cd   1.0     0.884143     0.647053     0.485456  Biso 1.000000    Cd
