#======================================================================

# CRYSTAL DATA

#----------------------------------------------------------------------

data_VESTA_phase_1


_pd_phase_name                         MOF
_cell_length_a                         21.51100
_cell_length_b                         21.53200
_cell_length_c                         21.50000
_cell_angle_alpha                      105.84100
_cell_angle_beta                       105.85700
_cell_angle_gamma                      105.80000
_symmetry_space_group_name_H-M         "P 1"
_symmetry_Int_Tables_number            1

loop_
_symmetry_equiv_pos_as_xyz
   "x, y, z"

loop_
   _atom_site_label
   _atom_site_occupancy
   _atom_site_fract_x
   _atom_site_fract_y
   _atom_site_fract_z
   _atom_site_adp_type
   _atom_site_B_iso_or_equiv
   _atom_site_type_symbol
    H   1.0     0.428179     0.327453     0.321224  Biso 1.000000     H
    H   1.0     0.428237     0.327611     0.821430  Biso 1.000000     H
    H   1.0     0.428219     0.827618     0.321493  Biso 1.000000     H
    H   1.0     0.428154     0.827652     0.821616  Biso 1.000000     H
    H   1.0     0.928111     0.327369     0.321398  Biso 1.000000     H
    H   1.0     0.928151     0.327448     0.821591  Biso 1.000000     H
    H   1.0     0.928122     0.827465     0.321581  Biso 1.000000     H
    H   1.0     0.928236     0.827563     0.821703  Biso 1.000000     H
    H   1.0     0.465648     0.419343     0.361187  Biso 1.000000     H
    H   1.0     0.465801     0.419498     0.861347  Biso 1.000000     H
    H   1.0     0.465736     0.919516     0.361321  Biso 1.000000     H
    H   1.0     0.465766     0.919540     0.861404  Biso 1.000000     H
    H   1.0     0.965593     0.419270     0.361286  Biso 1.000000     H
    H   1.0     0.965716     0.419337     0.861457  Biso 1.000000     H
    H   1.0     0.965651     0.919367     0.361349  Biso 1.000000     H
    H   1.0     0.965765     0.919469     0.861449  Biso 1.000000     H
    H   1.0     0.320909     0.428332     0.326983  Biso 1.000000     H
    H   1.0     0.321182     0.428457     0.827315  Biso 1.000000     H
    H   1.0     0.321077     0.928433     0.326854  Biso 1.000000     H
    H   1.0     0.321308     0.928461     0.827081  Biso 1.000000     H
    H   1.0     0.821244     0.428486     0.327171  Biso 1.000000     H
    H   1.0     0.821308     0.428486     0.827109  Biso 1.000000     H
    H   1.0     0.821275     0.928458     0.326897  Biso 1.000000     H
    H   1.0     0.821531     0.928615     0.827150  Biso 1.000000     H
    H   1.0     0.360848     0.465630     0.419011  Biso 1.000000     H
    H   1.0     0.361023     0.465847     0.919341  Biso 1.000000     H
    H   1.0     0.360958     0.965618     0.418888  Biso 1.000000     H
    H   1.0     0.361075     0.965740     0.919120  Biso 1.000000     H
    H   1.0     0.861141     0.465857     0.419195  Biso 1.000000     H
    H   1.0     0.861072     0.465791     0.919140  Biso 1.000000     H
    H   1.0     0.861099     0.965698     0.418928  Biso 1.000000     H
    H   1.0     0.861266     0.965897     0.919184  Biso 1.000000     H
    H   1.0     0.326968     0.320946     0.427938  Biso 1.000000     H
    H   1.0     0.326884     0.321042     0.927972  Biso 1.000000     H
    H   1.0     0.327116     0.821152     0.428059  Biso 1.000000     H
    H   1.0     0.326931     0.821301     0.928095  Biso 1.000000     H
    H   1.0     0.827161     0.321138     0.428052  Biso 1.000000     H
    H   1.0     0.826989     0.321229     0.927998  Biso 1.000000     H
    H   1.0     0.827056     0.821277     0.428058  Biso 1.000000     H
    H   1.0     0.827060     0.821373     0.928084  Biso 1.000000     H
    H   1.0     0.418949     0.360844     0.465243  Biso 1.000000     H
    H   1.0     0.418873     0.360855     0.965205  Biso 1.000000     H
    H   1.0     0.419091     0.860978     0.465410  Biso 1.000000     H
    H   1.0     0.418909     0.861043     0.965354  Biso 1.000000     H
    H   1.0     0.919143     0.360889     0.465349  Biso 1.000000     H
    H   1.0     0.918979     0.360900     0.965251  Biso 1.000000     H
    H   1.0     0.919034     0.860945     0.465297  Biso 1.000000     H
    H   1.0     0.919049     0.861031     0.965362  Biso 1.000000     H
    H   1.0     0.071796     0.172429     0.178299  Biso 1.000000     H
    H   1.0     0.071898     0.172518     0.678402  Biso 1.000000     H
    H   1.0     0.071892     0.672557     0.178403  Biso 1.000000     H
    H   1.0     0.071909     0.672633     0.678598  Biso 1.000000     H
    H   1.0     0.571879     0.172334     0.178382  Biso 1.000000     H
    H   1.0     0.571799     0.172360     0.678498  Biso 1.000000     H
    H   1.0     0.571801     0.672383     0.178568  Biso 1.000000     H
    H   1.0     0.571852     0.672528     0.678755  Biso 1.000000     H
    H   1.0     0.034266     0.080524     0.138551  Biso 1.000000     H
    H   1.0     0.034366     0.080616     0.638636  Biso 1.000000     H
    H   1.0     0.034327     0.580667     0.138539  Biso 1.000000     H
    H   1.0     0.034435     0.580732     0.638712  Biso 1.000000     H
    H   1.0     0.534268     0.080446     0.138595  Biso 1.000000     H
    H   1.0     0.534277     0.080462     0.638669  Biso 1.000000     H
    H   1.0     0.534236     0.580496     0.138650  Biso 1.000000     H
    H   1.0     0.534378     0.580638     0.638789  Biso 1.000000     H
    H   1.0     0.178500     0.071382     0.172847  Biso 1.000000     H
    H   1.0     0.178740     0.071527     0.673091  Biso 1.000000     H
    H   1.0     0.178734     0.571513     0.172888  Biso 1.000000     H
    H   1.0     0.178787     0.571506     0.672815  Biso 1.000000     H
    H   1.0     0.678721     0.071526     0.172914  Biso 1.000000     H
    H   1.0     0.678941     0.071554     0.673141  Biso 1.000000     H
    H   1.0     0.678863     0.571536     0.172685  Biso 1.000000     H
    H   1.0     0.679111     0.571656     0.673001  Biso 1.000000     H
    H   1.0     0.138767     0.034098     0.080813  Biso 1.000000     H
    H   1.0     0.138917     0.034286     0.581060  Biso 1.000000     H
    H   1.0     0.138970     0.534207     0.080857  Biso 1.000000     H
    H   1.0     0.138891     0.534137     0.580792  Biso 1.000000     H
    H   1.0     0.638953     0.034246     0.080876  Biso 1.000000     H
    H   1.0     0.639060     0.034370     0.581108  Biso 1.000000     H
    H   1.0     0.639021     0.534153     0.080659  Biso 1.000000     H
    H   1.0     0.639171     0.534354     0.580973  Biso 1.000000     H
    H   1.0     0.172976     0.178623     0.071907  Biso 1.000000     H
    H   1.0     0.172966     0.178716     0.571933  Biso 1.000000     H
    H   1.0     0.173063     0.678773     0.071997  Biso 1.000000     H
    H   1.0     0.172862     0.678850     0.571938  Biso 1.000000     H
    H   1.0     0.673105     0.178695     0.071904  Biso 1.000000     H
    H   1.0     0.672904     0.178835     0.571935  Biso 1.000000     H
    H   1.0     0.673140     0.678940     0.072023  Biso 1.000000     H
    H   1.0     0.673060     0.679044     0.572050  Biso 1.000000     H
    H   1.0     0.080988     0.138963     0.034635  Biso 1.000000     H
    H   1.0     0.080987     0.139049     0.534696  Biso 1.000000     H
    H   1.0     0.081072     0.639103     0.034751  Biso 1.000000     H
    H   1.0     0.080879     0.639100     0.534641  Biso 1.000000     H
    H   1.0     0.581127     0.138954     0.034645  Biso 1.000000     H
    H   1.0     0.580928     0.139010     0.534584  Biso 1.000000     H
    H   1.0     0.581151     0.639126     0.034780  Biso 1.000000     H
    H   1.0     0.581078     0.639148     0.534748  Biso 1.000000     H
    C   1.0     0.030216     0.367830     0.399487  Biso 1.000000     C
    C   1.0     0.030289     0.367826     0.899594  Biso 1.000000     C
    C   1.0     0.030261     0.867943     0.399599  Biso 1.000000     C
    C   1.0     0.030433     0.868053     0.899630  Biso 1.000000     C
    C   1.0     0.530181     0.367861     0.399465  Biso 1.000000     C
    C   1.0     0.530322     0.367946     0.899523  Biso 1.000000     C
    C   1.0     0.530303     0.868051     0.399588  Biso 1.000000     C
    C   1.0     0.530263     0.868000     0.899643  Biso 1.000000     C
    C   1.0     0.476711     0.372489     0.339861  Biso 1.000000     C
    C   1.0     0.476791     0.372602     0.839984  Biso 1.000000     C
    C   1.0     0.476752     0.872626     0.340012  Biso 1.000000     C
    C   1.0     0.476720     0.872609     0.840081  Biso 1.000000     C
    C   1.0     0.976626     0.372402     0.339933  Biso 1.000000     C
    C   1.0     0.976693     0.372437     0.840074  Biso 1.000000     C
    C   1.0     0.976647     0.872464     0.340031  Biso 1.000000     C
    C   1.0     0.976750     0.872564     0.840105  Biso 1.000000     C
    C   1.0     0.494146     0.379806     0.277746  Biso 1.000000     C
    C   1.0     0.494089     0.379828     0.777777  Biso 1.000000     C
    C   1.0     0.494066     0.879786     0.277799  Biso 1.000000     C
    C   1.0     0.493940     0.879687     0.777800  Biso 1.000000     C
    C   1.0     0.993914     0.379648     0.277727  Biso 1.000000     C
    C   1.0     0.993880     0.379621     0.777806  Biso 1.000000     C
    C   1.0     0.993867     0.879573     0.277760  Biso 1.000000     C
    C   1.0     0.993846     0.879643     0.777763  Biso 1.000000     C
    C   1.0     0.399267     0.030322     0.367597  Biso 1.000000     C
    C   1.0     0.399403     0.030398     0.867794  Biso 1.000000     C
    C   1.0     0.399200     0.530122     0.367571  Biso 1.000000     C
    C   1.0     0.399348     0.530310     0.867861  Biso 1.000000     C
    C   1.0     0.899451     0.030345     0.367602  Biso 1.000000     C
    C   1.0     0.899525     0.030603     0.867860  Biso 1.000000     C
    C   1.0     0.899421     0.530338     0.367700  Biso 1.000000     C
    C   1.0     0.899497     0.530340     0.867777  Biso 1.000000     C
    C   1.0     0.339583     0.476803     0.372151  Biso 1.000000     C
    C   1.0     0.339764     0.476952     0.872434  Biso 1.000000     C
    C   1.0     0.339678     0.976850     0.372070  Biso 1.000000     C
    C   1.0     0.339819     0.976902     0.872248  Biso 1.000000     C
    C   1.0     0.839851     0.476976     0.372302  Biso 1.000000     C
    C   1.0     0.839854     0.476951     0.872256  Biso 1.000000     C
    C   1.0     0.839841     0.976897     0.372079  Biso 1.000000     C
    C   1.0     0.839982     0.977047     0.872311  Biso 1.000000     C
    C   1.0     0.277558     0.494311     0.379579  Biso 1.000000     C
    C   1.0     0.277657     0.494360     0.879728  Biso 1.000000     C
    C   1.0     0.277588     0.994222     0.379501  Biso 1.000000     C
    C   1.0     0.277656     0.994205     0.879522  Biso 1.000000     C
    C   1.0     0.777739     0.494348     0.379657  Biso 1.000000     C
    C   1.0     0.777709     0.494303     0.879521  Biso 1.000000     C
    C   1.0     0.777698     0.994204     0.379433  Biso 1.000000     C
    C   1.0     0.777723     0.994186     0.879537  Biso 1.000000     C
    C   1.0     0.367723     0.399315     0.030013  Biso 1.000000     C
    C   1.0     0.367679     0.399254     0.529929  Biso 1.000000     C
    C   1.0     0.367760     0.899493     0.030176  Biso 1.000000     C
    C   1.0     0.367801     0.899394     0.530086  Biso 1.000000     C
    C   1.0     0.867880     0.399449     0.030069  Biso 1.000000     C
    C   1.0     0.867934     0.399391     0.530068  Biso 1.000000     C
    C   1.0     0.867927     0.899474     0.030218  Biso 1.000000     C
    C   1.0     0.867918     0.899529     0.530083  Biso 1.000000     C
    C   1.0     0.372155     0.339619     0.476460  Biso 1.000000     C
    C   1.0     0.372096     0.339658     0.976461  Biso 1.000000     C
    C   1.0     0.372271     0.839764     0.476597  Biso 1.000000     C
    C   1.0     0.372119     0.839842     0.976591  Biso 1.000000     C
    C   1.0     0.872335     0.339728     0.476570  Biso 1.000000     C
    C   1.0     0.872177     0.339757     0.976491  Biso 1.000000     C
    C   1.0     0.872241     0.839818     0.476557  Biso 1.000000     C
    C   1.0     0.872239     0.839840     0.976572  Biso 1.000000     C
    C   1.0     0.379666     0.277712     0.494055  Biso 1.000000     C
    C   1.0     0.379555     0.277700     0.993981  Biso 1.000000     C
    C   1.0     0.379691     0.777777     0.494083  Biso 1.000000     C
    C   1.0     0.379503     0.777791     0.993958  Biso 1.000000     C
    C   1.0     0.879705     0.277748     0.494083  Biso 1.000000     C
    C   1.0     0.879496     0.277726     0.993932  Biso 1.000000     C
    C   1.0     0.879561     0.777776     0.493976  Biso 1.000000     C
    C   1.0     0.879523     0.777718     0.993847  Biso 1.000000     C
    C   1.0     0.469770     0.131985     0.100355  Biso 1.000000     C
    C   1.0     0.469714     0.131933     0.600406  Biso 1.000000     C
    C   1.0     0.469716     0.632047     0.100473  Biso 1.000000     C
    C   1.0     0.469846     0.632125     0.600521  Biso 1.000000     C
    C   1.0     0.969600     0.131941     0.100370  Biso 1.000000     C
    C   1.0     0.969757     0.132042     0.600388  Biso 1.000000     C
    C   1.0     0.969753     0.632178     0.100401  Biso 1.000000     C
    C   1.0     0.969808     0.632163     0.600502  Biso 1.000000     C
    C   1.0     0.023282     0.127428     0.159895  Biso 1.000000     C
    C   1.0     0.023371     0.127520     0.659955  Biso 1.000000     C
    C   1.0     0.023350     0.627567     0.159921  Biso 1.000000     C
    C   1.0     0.023397     0.627598     0.660061  Biso 1.000000     C
    C   1.0     0.523313     0.127377     0.159917  Biso 1.000000     C
    C   1.0     0.523264     0.127355     0.659979  Biso 1.000000     C
    C   1.0     0.523247     0.627391     0.160013  Biso 1.000000     C
    C   1.0     0.523319     0.627493     0.660120  Biso 1.000000     C
    C   1.0     0.006182     0.120349     0.222235  Biso 1.000000     C
    C   1.0     0.006154     0.120413     0.722228  Biso 1.000000     C
    C   1.0     0.006163     0.620385     0.222189  Biso 1.000000     C
    C   1.0     0.006105     0.620350     0.722266  Biso 1.000000     C
    C   1.0     0.506094     0.120301     0.222198  Biso 1.000000     C
    C   1.0     0.505952     0.120194     0.722193  Biso 1.000000     C
    C   1.0     0.505948     0.620165     0.222219  Biso 1.000000     C
    C   1.0     0.505889     0.620175     0.722237  Biso 1.000000     C
    C   1.0     0.100542     0.469661     0.132222  Biso 1.000000     C
    C   1.0     0.100607     0.469656     0.632284  Biso 1.000000     C
    C   1.0     0.100508     0.969393     0.132137  Biso 1.000000     C
    C   1.0     0.100564     0.969640     0.632387  Biso 1.000000     C
    C   1.0     0.600696     0.469683     0.132134  Biso 1.000000     C
    C   1.0     0.600824     0.469864     0.632418  Biso 1.000000     C
    C   1.0     0.600629     0.969588     0.132203  Biso 1.000000     C
    C   1.0     0.600755     0.969662     0.632396  Biso 1.000000     C
    C   1.0     0.160051     0.022949     0.127687  Biso 1.000000     C
    C   1.0     0.160174     0.023088     0.627909  Biso 1.000000     C
    C   1.0     0.160187     0.523047     0.127743  Biso 1.000000     C
    C   1.0     0.160179     0.523017     0.627683  Biso 1.000000     C
    C   1.0     0.660210     0.023085     0.127748  Biso 1.000000     C
    C   1.0     0.660342     0.023138     0.627925  Biso 1.000000     C
    C   1.0     0.660280     0.523043     0.127563  Biso 1.000000     C
    C   1.0     0.660438     0.523184     0.627835  Biso 1.000000     C
    C   1.0     0.222312     0.005813     0.120464  Biso 1.000000     C
    C   1.0     0.222318     0.005781     0.620556  Biso 1.000000     C
    C   1.0     0.222331     0.505692     0.120478  Biso 1.000000     C
    C   1.0     0.222289     0.505642     0.620329  Biso 1.000000     C
    C   1.0     0.722375     0.005784     0.120474  Biso 1.000000     C
    C   1.0     0.722433     0.005770     0.620494  Biso 1.000000     C
    C   1.0     0.722386     0.505636     0.120264  Biso 1.000000     C
    C   1.0     0.722464     0.505678     0.620407  Biso 1.000000     C
    C   1.0     0.132101     0.100462     0.469909  Biso 1.000000     C
    C   1.0     0.132105     0.100519     0.969774  Biso 1.000000     C
    C   1.0     0.132089     0.600601     0.469920  Biso 1.000000     C
    C   1.0     0.132164     0.600555     0.969924  Biso 1.000000     C
    C   1.0     0.632219     0.100590     0.469910  Biso 1.000000     C
    C   1.0     0.632276     0.100499     0.969825  Biso 1.000000     C
    C   1.0     0.632347     0.600734     0.470061  Biso 1.000000     C
    C   1.0     0.632311     0.600671     0.969981  Biso 1.000000     C
    C   1.0     0.127795     0.160154     0.023420  Biso 1.000000     C
    C   1.0     0.127780     0.160174     0.523434  Biso 1.000000     C
    C   1.0     0.127872     0.660246     0.023506  Biso 1.000000     C
    C   1.0     0.127688     0.660262     0.523421  Biso 1.000000     C
    C   1.0     0.627918     0.160153     0.023407  Biso 1.000000     C
    C   1.0     0.627749     0.160222     0.523397  Biso 1.000000     C
    C   1.0     0.627931     0.660325     0.023530  Biso 1.000000     C
    C   1.0     0.627872     0.660371     0.523529  Biso 1.000000     C
    C   1.0     0.120507     0.222275     0.006144  Biso 1.000000     C
    C   1.0     0.120460     0.222215     0.506012  Biso 1.000000     C
    C   1.0     0.120551     0.722277     0.006069  Biso 1.000000     C
    C   1.0     0.120317     0.722243     0.505910  Biso 1.000000     C
    C   1.0     0.620535     0.222202     0.006036  Biso 1.000000     C
    C   1.0     0.620330     0.222209     0.505909  Biso 1.000000     C
    C   1.0     0.620475     0.722285     0.006011  Biso 1.000000     C
    C   1.0     0.620363     0.722277     0.505933  Biso 1.000000     C
    O   1.0     0.096086     0.395556     0.414897  Biso 1.000000     O
    O   1.0     0.096145     0.395232     0.914764  Biso 1.000000     O
    O   1.0     0.096116     0.895353     0.414761  Biso 1.000000     O
    O   1.0     0.096269     0.895504     0.914741  Biso 1.000000     O
    O   1.0     0.596099     0.395770     0.415145  Biso 1.000000     O
    O   1.0     0.596205     0.395570     0.914918  Biso 1.000000     O
    O   1.0     0.596182     0.895578     0.414903  Biso 1.000000     O
    O   1.0     0.596135     0.895286     0.914778  Biso 1.000000     O
    O   1.0     0.007208     0.336489     0.435438  Biso 1.000000     O
    O   1.0     0.007293     0.336762     0.935742  Biso 1.000000     O
    O   1.0     0.007284     0.836935     0.435794  Biso 1.000000     O
    O   1.0     0.007529     0.837016     0.935841  Biso 1.000000     O
    O   1.0     0.507038     0.336293     0.435184  Biso 1.000000     O
    O   1.0     0.507250     0.336635     0.935464  Biso 1.000000     O
    O   1.0     0.507256     0.836885     0.435638  Biso 1.000000     O
    O   1.0     0.507222     0.837063     0.935851  Biso 1.000000     O
    O   1.0     0.074161     0.215297     0.449886  Biso 1.000000     O
    O   1.0     0.074219     0.215438     0.950041  Biso 1.000000     O
    O   1.0     0.073932     0.715237     0.449817  Biso 1.000000     O
    O   1.0     0.074102     0.715304     0.950020  Biso 1.000000     O
    O   1.0     0.573990     0.215213     0.449783  Biso 1.000000     O
    O   1.0     0.574134     0.215265     0.949964  Biso 1.000000     O
    O   1.0     0.573875     0.715162     0.449861  Biso 1.000000     O
    O   1.0     0.573927     0.715215     0.949990  Biso 1.000000     O
    O   1.0     0.159848     0.282063     0.052704  Biso 1.000000     O
    O   1.0     0.159798     0.282043     0.552499  Biso 1.000000     O
    O   1.0     0.160049     0.782119     0.052448  Biso 1.000000     O
    O   1.0     0.159755     0.782095     0.552320  Biso 1.000000     O
    O   1.0     0.659912     0.282035     0.052488  Biso 1.000000     O
    O   1.0     0.659668     0.282065     0.552356  Biso 1.000000     O
    O   1.0     0.659983     0.782165     0.052321  Biso 1.000000     O
    O   1.0     0.659819     0.782176     0.552246  Biso 1.000000     O
    O   1.0     0.414439     0.096132     0.395022  Biso 1.000000     O
    O   1.0     0.414408     0.096193     0.895004  Biso 1.000000     O
    O   1.0     0.414707     0.595988     0.395266  Biso 1.000000     O
    O   1.0     0.414568     0.596145     0.895215  Biso 1.000000     O
    O   1.0     0.914612     0.096165     0.394955  Biso 1.000000     O
    O   1.0     0.914500     0.096388     0.895106  Biso 1.000000     O
    O   1.0     0.914720     0.596177     0.395175  Biso 1.000000     O
    O   1.0     0.914604     0.596166     0.895010  Biso 1.000000     O
    O   1.0     0.435474     0.007267     0.336637  Biso 1.000000     O
    O   1.0     0.435777     0.007368     0.837055  Biso 1.000000     O
    O   1.0     0.435106     0.506933     0.336285  Biso 1.000000     O
    O   1.0     0.435507     0.507170     0.836896  Biso 1.000000     O
    O   1.0     0.935707     0.007269     0.336731  Biso 1.000000     O
    O   1.0     0.935901     0.007625     0.837091  Biso 1.000000     O
    O   1.0     0.935492     0.507193     0.336608  Biso 1.000000     O
    O   1.0     0.935806     0.507227     0.837014  Biso 1.000000     O
    O   1.0     0.450007     0.074180     0.215404  Biso 1.000000     O
    O   1.0     0.449942     0.073912     0.715292  Biso 1.000000     O
    O   1.0     0.449892     0.573941     0.215319  Biso 1.000000     O
    O   1.0     0.449846     0.573869     0.715223  Biso 1.000000     O
    O   1.0     0.950180     0.074161     0.215494  Biso 1.000000     O
    O   1.0     0.950181     0.074124     0.715385  Biso 1.000000     O
    O   1.0     0.950156     0.574136     0.215355  Biso 1.000000     O
    O   1.0     0.950146     0.573981     0.715332  Biso 1.000000     O
    O   1.0     0.052734     0.159721     0.282088  Biso 1.000000     O
    O   1.0     0.052583     0.159887     0.782120  Biso 1.000000     O
    O   1.0     0.052640     0.659737     0.282083  Biso 1.000000     O
    O   1.0     0.052486     0.659795     0.782195  Biso 1.000000     O
    O   1.0     0.552630     0.159605     0.282074  Biso 1.000000     O
    O   1.0     0.552371     0.159639     0.782104  Biso 1.000000     O
    O   1.0     0.552410     0.659490     0.282137  Biso 1.000000     O
    O   1.0     0.552263     0.659548     0.782195  Biso 1.000000     O
    O   1.0     0.395408     0.414696     0.095954  Biso 1.000000     O
    O   1.0     0.395577     0.414880     0.595905  Biso 1.000000     O
    O   1.0     0.395121     0.914635     0.096101  Biso 1.000000     O
    O   1.0     0.395364     0.914745     0.596037  Biso 1.000000     O
    O   1.0     0.895228     0.414576     0.095994  Biso 1.000000     O
    O   1.0     0.895431     0.414699     0.596021  Biso 1.000000     O
    O   1.0     0.895326     0.914569     0.096129  Biso 1.000000     O
    O   1.0     0.895190     0.914652     0.596022  Biso 1.000000     O
    O   1.0     0.336498     0.435302     0.006916  Biso 1.000000     O
    O   1.0     0.336174     0.434997     0.506739  Biso 1.000000     O
    O   1.0     0.336863     0.935714     0.007091  Biso 1.000000     O
    O   1.0     0.336634     0.935393     0.506928  Biso 1.000000     O
    O   1.0     0.837035     0.435710     0.006999  Biso 1.000000     O
    O   1.0     0.836873     0.435463     0.506922  Biso 1.000000     O
    O   1.0     0.837027     0.935727     0.007210  Biso 1.000000     O
    O   1.0     0.837143     0.935810     0.506961  Biso 1.000000     O
    O   1.0     0.215429     0.449632     0.074218  Biso 1.000000     O
    O   1.0     0.215362     0.449519     0.574153  Biso 1.000000     O
    O   1.0     0.215579     0.949743     0.074316  Biso 1.000000     O
    O   1.0     0.215425     0.949720     0.574283  Biso 1.000000     O
    O   1.0     0.715442     0.449550     0.074035  Biso 1.000000     O
    O   1.0     0.715412     0.449592     0.574102  Biso 1.000000     O
    O   1.0     0.715482     0.949773     0.074140  Biso 1.000000     O
    O   1.0     0.715452     0.949772     0.574083  Biso 1.000000     O
    O   1.0     0.282114     0.052442     0.159703  Biso 1.000000     O
    O   1.0     0.282192     0.052273     0.659796  Biso 1.000000     O
    O   1.0     0.282209     0.552152     0.159773  Biso 1.000000     O
    O   1.0     0.282169     0.552166     0.659505  Biso 1.000000     O
    O   1.0     0.782246     0.052212     0.159868  Biso 1.000000     O
    O   1.0     0.782336     0.052164     0.659848  Biso 1.000000     O
    O   1.0     0.782265     0.552112     0.159562  Biso 1.000000     O
    O   1.0     0.782389     0.552075     0.659686  Biso 1.000000     O
    O   1.0     0.403899     0.104708     0.085224  Biso 1.000000     O
    O   1.0     0.403835     0.104407     0.585089  Biso 1.000000     O
    O   1.0     0.403833     0.604418     0.085075  Biso 1.000000     O
    O   1.0     0.403929     0.604215     0.584842  Biso 1.000000     O
    O   1.0     0.903764     0.104489     0.085256  Biso 1.000000     O
    O   1.0     0.903902     0.104634     0.585228  Biso 1.000000     O
    O   1.0     0.903897     0.604776     0.085235  Biso 1.000000     O
    O   1.0     0.903937     0.604435     0.585088  Biso 1.000000     O
    O   1.0     0.492811     0.162915     0.064141  Biso 1.000000     O
    O   1.0     0.492764     0.163101     0.564357  Biso 1.000000     O
    O   1.0     0.492789     0.663365     0.064537  Biso 1.000000     O
    O   1.0     0.492987     0.663697     0.564805  Biso 1.000000     O
    O   1.0     0.992506     0.162980     0.064160  Biso 1.000000     O
    O   1.0     0.992733     0.163049     0.564191  Biso 1.000000     O
    O   1.0     0.992748     0.663237     0.064249  Biso 1.000000     O
    O   1.0     0.992817     0.663504     0.564551  Biso 1.000000     O
    O   1.0     0.426109     0.284771     0.050000  Biso 1.000000     O
    O   1.0     0.426153     0.284828     0.550127  Biso 1.000000     O
    O   1.0     0.425902     0.784726     0.050031  Biso 1.000000     O
    O   1.0     0.426029     0.784771     0.550208  Biso 1.000000     O
    O   1.0     0.925940     0.284699     0.049983  Biso 1.000000     O
    O   1.0     0.926092     0.284756     0.550175  Biso 1.000000     O
    O   1.0     0.925814     0.784555     0.049948  Biso 1.000000     O
    O   1.0     0.925854     0.784692     0.550105  Biso 1.000000     O
    O   1.0     0.340210     0.217814     0.447742  Biso 1.000000     O
    O   1.0     0.340044     0.217818     0.947675  Biso 1.000000     O
    O   1.0     0.340354     0.717921     0.447634  Biso 1.000000     O
    O   1.0     0.340131     0.717959     0.947502  Biso 1.000000     O
    O   1.0     0.840265     0.217895     0.447675  Biso 1.000000     O
    O   1.0     0.839998     0.217884     0.947551  Biso 1.000000     O
    O   1.0     0.840229     0.717949     0.447483  Biso 1.000000     O
    O   1.0     0.840177     0.717930     0.947291  Biso 1.000000     O
    O   1.0     0.085430     0.403834     0.104986  Biso 1.000000     O
    O   1.0     0.085306     0.403817     0.604809  Biso 1.000000     O
    O   1.0     0.085531     0.903608     0.104888  Biso 1.000000     O
    O   1.0     0.085403     0.903820     0.605035  Biso 1.000000     O
    O   1.0     0.585485     0.403848     0.104788  Biso 1.000000     O
    O   1.0     0.585320     0.403999     0.604725  Biso 1.000000     O
    O   1.0     0.585625     0.903794     0.104994  Biso 1.000000     O
    O   1.0     0.585589     0.903854     0.604976  Biso 1.000000     O
    O   1.0     0.064236     0.492776     0.162988  Biso 1.000000     O
    O   1.0     0.064536     0.492802     0.663376  Biso 1.000000     O
    O   1.0     0.064132     0.992369     0.162908  Biso 1.000000     O
    O   1.0     0.064309     0.992716     0.663259  Biso 1.000000     O
    O   1.0     0.564529     0.492821     0.163089  Biso 1.000000     O
    O   1.0     0.564917     0.493053     0.663705  Biso 1.000000     O
    O   1.0     0.564255     0.992617     0.162944  Biso 1.000000     O
    O   1.0     0.564542     0.992715     0.663352  Biso 1.000000     O
    O   1.0     0.049875     0.426014     0.284659  Biso 1.000000     O
    O   1.0     0.049888     0.425867     0.784640  Biso 1.000000     O
    O   1.0     0.049840     0.925865     0.284605  Biso 1.000000     O
    O   1.0     0.049848     0.925830     0.784501  Biso 1.000000     O
    O   1.0     0.550188     0.426117     0.284763  Biso 1.000000     O
    O   1.0     0.550145     0.426050     0.784676  Biso 1.000000     O
    O   1.0     0.550075     0.926072     0.284702  Biso 1.000000     O
    O   1.0     0.550025     0.925811     0.784597  Biso 1.000000     O
    O   1.0     0.447778     0.340429     0.217787  Biso 1.000000     O
    O   1.0     0.447623     0.340506     0.717860  Biso 1.000000     O
    O   1.0     0.447650     0.840339     0.217887  Biso 1.000000     O
    O   1.0     0.447405     0.840380     0.717924  Biso 1.000000     O
    O   1.0     0.947531     0.340207     0.217798  Biso 1.000000     O
    O   1.0     0.947399     0.340272     0.717913  Biso 1.000000     O
    O   1.0     0.947443     0.840097     0.217865  Biso 1.000000     O
    O   1.0     0.947291     0.840270     0.717912  Biso 1.000000     O
    O   1.0     0.104826     0.085335     0.403970  Biso 1.000000     O
    O   1.0     0.104715     0.085430     0.903863  Biso 1.000000     O
    O   1.0     0.104598     0.585298     0.403969  Biso 1.000000     O
    O   1.0     0.104815     0.585431     0.904000  Biso 1.000000     O
    O   1.0     0.604655     0.085238     0.403958  Biso 1.000000     O
    O   1.0     0.604910     0.085351     0.903900  Biso 1.000000     O
    O   1.0     0.604451     0.585108     0.404085  Biso 1.000000     O
    O   1.0     0.604632     0.585293     0.904039  Biso 1.000000     O
    O   1.0     0.162877     0.064182     0.493031  Biso 1.000000     O
    O   1.0     0.162996     0.064261     0.992783  Biso 1.000000     O
    O   1.0     0.163146     0.564525     0.493065  Biso 1.000000     O
    O   1.0     0.163009     0.564291     0.992991  Biso 1.000000     O
    O   1.0     0.663385     0.064592     0.493068  Biso 1.000000     O
    O   1.0     0.663176     0.064282     0.992912  Biso 1.000000     O
    O   1.0     0.663849     0.564989     0.493252  Biso 1.000000     O
    O   1.0     0.663532     0.564682     0.993078  Biso 1.000000     O
    O   1.0     0.284571     0.050220     0.425913  Biso 1.000000     O
    O   1.0     0.284551     0.050216     0.925857  Biso 1.000000     O
    O   1.0     0.284612     0.550397     0.425887  Biso 1.000000     O
    O   1.0     0.284601     0.550446     0.925959  Biso 1.000000     O
    O   1.0     0.784591     0.050266     0.425706  Biso 1.000000     O
    O   1.0     0.784458     0.050255     0.925687  Biso 1.000000     O
    O   1.0     0.784665     0.550470     0.425834  Biso 1.000000     O
    O   1.0     0.784608     0.550365     0.925776  Biso 1.000000     O
    O   1.0     0.217632     0.447916     0.340299  Biso 1.000000     O
    O   1.0     0.217779     0.447886     0.840427  Biso 1.000000     O
    O   1.0     0.217684     0.947829     0.340147  Biso 1.000000     O
    O   1.0     0.217784     0.947779     0.840126  Biso 1.000000     O
    O   1.0     0.717860     0.447824     0.340480  Biso 1.000000     O
    O   1.0     0.717832     0.447838     0.840231  Biso 1.000000     O
    O   1.0     0.717824     0.947711     0.340195  Biso 1.000000     O
    O   1.0     0.717920     0.947558     0.840298  Biso 1.000000     O
   Cd   1.0     0.115286     0.352978     0.512889  Biso 1.000000    Cd
   Cd   1.0     0.115380     0.353012     0.000000  Biso 1.000000    Cd
   Cd   1.0     0.115363     0.853168     0.513003  Biso 1.000000    Cd
   Cd   1.0     0.115568     0.853092     0.000000  Biso 1.000000    Cd
   Cd   1.0     0.615253     0.353068     0.512848  Biso 1.000000    Cd
   Cd   1.0     0.615353     0.352941     0.000000  Biso 1.000000    Cd
   Cd   1.0     0.615385     0.853180     0.512890  Biso 1.000000    Cd
   Cd   1.0     0.615437     0.853122     0.000000  Biso 1.000000    Cd
   Cd   1.0     0.512765     0.115228     0.353064  Biso 1.000000    Cd
   Cd   1.0     0.512863     0.115298     0.853221  Biso 1.000000    Cd
   Cd   1.0     0.512649     0.615101     0.353132  Biso 1.000000    Cd
   Cd   1.0     0.512694     0.615211     0.853244  Biso 1.000000    Cd
   Cd   1.0     0.000000     0.115324     0.353104  Biso 1.000000    Cd
   Cd   1.0     0.000000     0.115549     0.853187  Biso 1.000000    Cd
   Cd   1.0     0.000000     0.615260     0.353014  Biso 1.000000    Cd
   Cd   1.0     0.000000     0.615340     0.853206  Biso 1.000000    Cd
   Cd   1.0     0.353199     0.512668     0.115185  Biso 1.000000    Cd
   Cd   1.0     0.353174     0.512616     0.615041  Biso 1.000000    Cd
   Cd   1.0     0.353235     0.000000     0.115306  Biso 1.000000    Cd
   Cd   1.0     0.353156     0.000000     0.615200  Biso 1.000000    Cd
   Cd   1.0     0.853435     0.512845     0.115234  Biso 1.000000    Cd
   Cd   1.0     0.853418     0.512698     0.615211  Biso 1.000000    Cd
   Cd   1.0     0.853351     0.000000     0.115449  Biso 1.000000    Cd
   Cd   1.0     0.853391     0.000000     0.615298  Biso 1.000000    Cd
   Cd   1.0     0.384597     0.146865    -0.012899  Biso 1.000000    Cd
   Cd   1.0     0.384640     0.146810     0.487103  Biso 1.000000    Cd
   Cd   1.0     0.384690     0.647054    -0.012836  Biso 1.000000    Cd
   Cd   1.0     0.384771     0.646919     0.487141  Biso 1.000000    Cd
   Cd   1.0     0.884470     0.146906    -0.012927  Biso 1.000000    Cd
   Cd   1.0     0.884654     0.146818     0.486987  Biso 1.000000    Cd
   Cd   1.0     0.884655     0.646987    -0.013017  Biso 1.000000    Cd
   Cd   1.0     0.884740     0.647013     0.487095  Biso 1.000000    Cd
   Cd   1.0    -0.012817     0.384665     0.146796  Biso 1.000000    Cd
   Cd   1.0    -0.012733     0.384737     0.646973  Biso 1.000000    Cd
   Cd   1.0    -0.012865     0.884442     0.146806  Biso 1.000000    Cd
   Cd   1.0    -0.012907     0.884664     0.646889  Biso 1.000000    Cd
   Cd   1.0     0.487349     0.384777     0.146744  Biso 1.000000    Cd
   Cd   1.0     0.487377     0.384886     0.646858  Biso 1.000000    Cd
   Cd   1.0     0.487169     0.884688     0.146779  Biso 1.000000    Cd
   Cd   1.0     0.487256     0.884755     0.646928  Biso 1.000000    Cd
   Cd   1.0     0.146627    -0.012829     0.384695  Biso 1.000000    Cd
   Cd   1.0     0.146679    -0.012775     0.884544  Biso 1.000000    Cd
   Cd   1.0     0.146606     0.487294     0.384778  Biso 1.000000    Cd
   Cd   1.0     0.146609     0.487156     0.884758  Biso 1.000000    Cd
   Cd   1.0     0.646861    -0.012696     0.384793  Biso 1.000000    Cd
   Cd   1.0     0.646797    -0.012917     0.884695  Biso 1.000000    Cd
   Cd   1.0     0.646856     0.487372     0.384950  Biso 1.000000    Cd
   Cd   1.0     0.646838     0.487322     0.884810  Biso 1.000000    Cd
