#======================================================================

# CRYSTAL DATA

#----------------------------------------------------------------------

data_VESTA_phase_1


_pd_phase_name                         MOF
_cell_length_a                         14.01000
_cell_length_b                         20.56000
_cell_length_c                         20.56100
_cell_angle_alpha                      89.85000
_cell_angle_beta                       93.67300
_cell_angle_gamma                      86.35300
_symmetry_space_group_name_H-M         "P 1"
_symmetry_Int_Tables_number            1

loop_
_symmetry_equiv_pos_as_xyz
   "x, y, z"

loop_
   _atom_site_label
   _atom_site_occupancy
   _atom_site_fract_x
   _atom_site_fract_y
   _atom_site_fract_z
   _atom_site_adp_type
   _atom_site_B_iso_or_equiv
   _atom_site_type_symbol
    H   1.0     0.455057     0.170688     0.108634  Biso 1.000000     H
    H   1.0     0.455039     0.170689     0.608646  Biso 1.000000     H
    H   1.0     0.455052     0.670697     0.108635  Biso 1.000000     H
    H   1.0     0.455049     0.670697     0.608645  Biso 1.000000     H
    H   1.0     0.955046     0.170690     0.108635  Biso 1.000000     H
    H   1.0     0.955052     0.170689     0.608644  Biso 1.000000     H
    H   1.0     0.955059     0.670697     0.108634  Biso 1.000000     H
    H   1.0     0.955048     0.670698     0.608645  Biso 1.000000     H
    H   1.0     0.383079     0.364069     0.150213  Biso 1.000000     H
    H   1.0     0.383069     0.364069     0.650226  Biso 1.000000     H
    H   1.0     0.383084     0.864078     0.150213  Biso 1.000000     H
    H   1.0     0.383073     0.864077     0.650224  Biso 1.000000     H
    H   1.0     0.883090     0.364072     0.150213  Biso 1.000000     H
    H   1.0     0.883075     0.364069     0.650224  Biso 1.000000     H
    H   1.0     0.883092     0.864080     0.150211  Biso 1.000000     H
    H   1.0     0.883081     0.864080     0.650223  Biso 1.000000     H
    H   1.0     0.399797     0.187197     0.489595  Biso 1.000000     H
    H   1.0     0.399782     0.187195     0.989607  Biso 1.000000     H
    H   1.0     0.399800     0.687204     0.489595  Biso 1.000000     H
    H   1.0     0.399794     0.687206     0.989606  Biso 1.000000     H
    H   1.0     0.899793     0.187194     0.489596  Biso 1.000000     H
    H   1.0     0.899791     0.187200     0.989605  Biso 1.000000     H
    H   1.0     0.899804     0.687205     0.489595  Biso 1.000000     H
    H   1.0     0.899792     0.687204     0.989607  Biso 1.000000     H
    H   1.0     0.320812     0.387273     0.031813  Biso 1.000000     H
    H   1.0     0.320822     0.387278     0.531822  Biso 1.000000     H
    H   1.0     0.320831     0.887285     0.031810  Biso 1.000000     H
    H   1.0     0.320817     0.887284     0.531822  Biso 1.000000     H
    H   1.0     0.820841     0.387281     0.031810  Biso 1.000000     H
    H   1.0     0.820812     0.387274     0.531823  Biso 1.000000     H
    H   1.0     0.820830     0.887284     0.031809  Biso 1.000000     H
    H   1.0     0.820830     0.887287     0.531820  Biso 1.000000     H
    H   1.0     0.294982     0.108641     0.170706  Biso 1.000000     H
    H   1.0     0.294980     0.108640     0.670719  Biso 1.000000     H
    H   1.0     0.294987     0.608649     0.170706  Biso 1.000000     H
    H   1.0     0.294967     0.608648     0.670718  Biso 1.000000     H
    H   1.0     0.794983     0.108640     0.170705  Biso 1.000000     H
    H   1.0     0.794974     0.108639     0.670718  Biso 1.000000     H
    H   1.0     0.794986     0.608649     0.170706  Biso 1.000000     H
    H   1.0     0.794980     0.608648     0.670718  Biso 1.000000     H
    H   1.0     0.366929     0.150236     0.364107  Biso 1.000000     H
    H   1.0     0.366925     0.150237     0.864119  Biso 1.000000     H
    H   1.0     0.366933     0.650245     0.364107  Biso 1.000000     H
    H   1.0     0.366934     0.650244     0.864116  Biso 1.000000     H
    H   1.0     0.866938     0.150237     0.364105  Biso 1.000000     H
    H   1.0     0.866930     0.150236     0.864118  Biso 1.000000     H
    H   1.0     0.866939     0.650245     0.364106  Biso 1.000000     H
    H   1.0     0.866942     0.650247     0.864115  Biso 1.000000     H
    H   1.0     0.350266     0.489618     0.187221  Biso 1.000000     H
    H   1.0     0.350270     0.489619     0.687229  Biso 1.000000     H
    H   1.0     0.350270     0.989629     0.187219  Biso 1.000000     H
    H   1.0     0.350260     0.989627     0.687235  Biso 1.000000     H
    H   1.0     0.850277     0.489620     0.187218  Biso 1.000000     H
    H   1.0     0.850266     0.489618     0.687232  Biso 1.000000     H
    H   1.0     0.850275     0.989629     0.187218  Biso 1.000000     H
    H   1.0     0.850274     0.989630     0.687230  Biso 1.000000     H
    H   1.0     0.429185     0.031853     0.387330  Biso 1.000000     H
    H   1.0     0.429174     0.031853     0.887345  Biso 1.000000     H
    H   1.0     0.429182     0.531861     0.387331  Biso 1.000000     H
    H   1.0     0.429207     0.531865     0.887335  Biso 1.000000     H
    H   1.0     0.929197     0.031855     0.387328  Biso 1.000000     H
    H   1.0     0.929200     0.031856     0.887338  Biso 1.000000     H
    H   1.0     0.929199     0.531864     0.387328  Biso 1.000000     H
    H   1.0     0.929198     0.531865     0.887339  Biso 1.000000     H
    H   1.0     0.044962     0.329318     0.391385  Biso 1.000000     H
    H   1.0     0.044960     0.329319     0.891394  Biso 1.000000     H
    H   1.0     0.044971     0.829327     0.391384  Biso 1.000000     H
    H   1.0     0.044956     0.829328     0.891396  Biso 1.000000     H
    H   1.0     0.544971     0.329319     0.391383  Biso 1.000000     H
    H   1.0     0.544954     0.329320     0.891395  Biso 1.000000     H
    H   1.0     0.544968     0.829328     0.391384  Biso 1.000000     H
    H   1.0     0.544965     0.829328     0.891394  Biso 1.000000     H
    H   1.0     0.116924     0.135937     0.349801  Biso 1.000000     H
    H   1.0     0.116921     0.135938     0.849811  Biso 1.000000     H
    H   1.0     0.116934     0.635947     0.349797  Biso 1.000000     H
    H   1.0     0.116930     0.635948     0.849810  Biso 1.000000     H
    H   1.0     0.616931     0.135938     0.349799  Biso 1.000000     H
    H   1.0     0.616928     0.135940     0.849811  Biso 1.000000     H
    H   1.0     0.616944     0.635950     0.349797  Biso 1.000000     H
    H   1.0     0.616933     0.635948     0.849809  Biso 1.000000     H
    H   1.0     0.100223     0.312806     0.010423  Biso 1.000000     H
    H   1.0     0.100218     0.312809     0.510433  Biso 1.000000     H
    H   1.0     0.100228     0.812816     0.010422  Biso 1.000000     H
    H   1.0     0.100216     0.812814     0.510434  Biso 1.000000     H
    H   1.0     0.600229     0.312810     0.010421  Biso 1.000000     H
    H   1.0     0.600220     0.312808     0.510433  Biso 1.000000     H
    H   1.0     0.600231     0.812815     0.010422  Biso 1.000000     H
    H   1.0     0.600220     0.812817     0.510433  Biso 1.000000     H
    H   1.0     0.179181     0.112727     0.468202  Biso 1.000000     H
    H   1.0     0.179174     0.112728     0.968213  Biso 1.000000     H
    H   1.0     0.179181     0.612734     0.468200  Biso 1.000000     H
    H   1.0     0.179192     0.612740     0.968210  Biso 1.000000     H
    H   1.0     0.679181     0.112726     0.468201  Biso 1.000000     H
    H   1.0     0.679192     0.112733     0.968211  Biso 1.000000     H
    H   1.0     0.679198     0.612739     0.468199  Biso 1.000000     H
    H   1.0     0.679189     0.612738     0.968210  Biso 1.000000     H
    H   1.0     0.205028     0.391363     0.329307  Biso 1.000000     H
    H   1.0     0.205030     0.391363     0.829318  Biso 1.000000     H
    H   1.0     0.205033     0.891373     0.329306  Biso 1.000000     H
    H   1.0     0.205029     0.891371     0.829318  Biso 1.000000     H
    H   1.0     0.705038     0.391364     0.329306  Biso 1.000000     H
    H   1.0     0.705031     0.391363     0.829318  Biso 1.000000     H
    H   1.0     0.705040     0.891372     0.329305  Biso 1.000000     H
    H   1.0     0.705036     0.891372     0.829318  Biso 1.000000     H
    H   1.0     0.133079     0.349771     0.135906  Biso 1.000000     H
    H   1.0     0.133065     0.349772     0.635920  Biso 1.000000     H
    H   1.0     0.133077     0.849780     0.135906  Biso 1.000000     H
    H   1.0     0.133075     0.849782     0.635917  Biso 1.000000     H
    H   1.0     0.633080     0.349773     0.135906  Biso 1.000000     H
    H   1.0     0.633075     0.349773     0.635918  Biso 1.000000     H
    H   1.0     0.633088     0.849783     0.135904  Biso 1.000000     H
    H   1.0     0.633076     0.849782     0.635918  Biso 1.000000     H
    H   1.0     0.149750     0.010385     0.312795  Biso 1.000000     H
    H   1.0     0.149741     0.010383     0.812810  Biso 1.000000     H
    H   1.0     0.149744     0.510394     0.312795  Biso 1.000000     H
    H   1.0     0.149747     0.510394     0.812809  Biso 1.000000     H
    H   1.0     0.649749     0.010384     0.312797  Biso 1.000000     H
    H   1.0     0.649749     0.010384     0.812809  Biso 1.000000     H
    H   1.0     0.649751     0.510395     0.312797  Biso 1.000000     H
    H   1.0     0.649749     0.510394     0.812808  Biso 1.000000     H
    H   1.0     0.070821     0.468154     0.112685  Biso 1.000000     H
    H   1.0     0.070807     0.468155     0.612701  Biso 1.000000     H
    H   1.0     0.070821     0.968163     0.112685  Biso 1.000000     H
    H   1.0     0.070814     0.968165     0.612699  Biso 1.000000     H
    H   1.0     0.570819     0.468155     0.112687  Biso 1.000000     H
    H   1.0     0.570819     0.468156     0.612698  Biso 1.000000     H
    H   1.0     0.570823     0.968165     0.112686  Biso 1.000000     H
    H   1.0     0.570816     0.968165     0.612700  Biso 1.000000     H
    C   1.0     0.357190     0.288998     0.001447  Biso 1.000000     C
    C   1.0     0.357202     0.289005     0.501456  Biso 1.000000     C
    C   1.0     0.357209     0.789010     0.001445  Biso 1.000000     C
    C   1.0     0.357201     0.789010     0.501456  Biso 1.000000     C
    C   1.0     0.857207     0.289005     0.001445  Biso 1.000000     C
    C   1.0     0.857194     0.289001     0.501456  Biso 1.000000     C
    C   1.0     0.857193     0.789007     0.001447  Biso 1.000000     C
    C   1.0     0.857200     0.789012     0.501456  Biso 1.000000     C
    C   1.0     0.424364     0.216980     0.088161  Biso 1.000000     C
    C   1.0     0.424362     0.216984     0.588171  Biso 1.000000     C
    C   1.0     0.424371     0.716991     0.088160  Biso 1.000000     C
    C   1.0     0.424367     0.716991     0.588170  Biso 1.000000     C
    C   1.0     0.924367     0.216984     0.088160  Biso 1.000000     C
    C   1.0     0.924364     0.216981     0.588170  Biso 1.000000     C
    C   1.0     0.924364     0.716989     0.088161  Biso 1.000000     C
    C   1.0     0.924365     0.716992     0.588170  Biso 1.000000     C
    C   1.0     0.382895     0.327891     0.111610  Biso 1.000000     C
    C   1.0     0.382896     0.327894     0.611620  Biso 1.000000     C
    C   1.0     0.382906     0.827902     0.111609  Biso 1.000000     C
    C   1.0     0.382897     0.827901     0.611620  Biso 1.000000     C
    C   1.0     0.882909     0.327896     0.111609  Biso 1.000000     C
    C   1.0     0.882895     0.327892     0.611620  Biso 1.000000     C
    C   1.0     0.882902     0.827901     0.111609  Biso 1.000000     C
    C   1.0     0.882901     0.827903     0.611619  Biso 1.000000     C
    C   1.0     0.330403     0.302904     0.430029  Biso 1.000000     C
    C   1.0     0.330368     0.302897     0.930041  Biso 1.000000     C
    C   1.0     0.330390     0.802907     0.430029  Biso 1.000000     C
    C   1.0     0.330393     0.802911     0.930038  Biso 1.000000     C
    C   1.0     0.830373     0.302895     0.430030  Biso 1.000000     C
    C   1.0     0.830400     0.302908     0.930038  Biso 1.000000     C
    C   1.0     0.830406     0.802913     0.430028  Biso 1.000000     C
    C   1.0     0.830392     0.802912     0.930039  Biso 1.000000     C
    C   1.0     0.393878     0.227488     0.023513  Biso 1.000000     C
    C   1.0     0.393889     0.227494     0.523521  Biso 1.000000     C
    C   1.0     0.393894     0.727499     0.023511  Biso 1.000000     C
    C   1.0     0.393884     0.727499     0.523522  Biso 1.000000     C
    C   1.0     0.893896     0.227495     0.023510  Biso 1.000000     C
    C   1.0     0.893875     0.227489     0.523523  Biso 1.000000     C
    C   1.0     0.893895     0.727499     0.023511  Biso 1.000000     C
    C   1.0     0.893896     0.727502     0.523520  Biso 1.000000     C
    C   1.0     0.350199     0.339012     0.047429  Biso 1.000000     C
    C   1.0     0.350214     0.339019     0.547437  Biso 1.000000     C
    C   1.0     0.350220     0.839025     0.047426  Biso 1.000000     C
    C   1.0     0.350205     0.839024     0.547438  Biso 1.000000     C
    C   1.0     0.850230     0.339021     0.047425  Biso 1.000000     C
    C   1.0     0.850196     0.339013     0.547439  Biso 1.000000     C
    C   1.0     0.850222     0.839025     0.047426  Biso 1.000000     C
    C   1.0     0.850222     0.839028     0.547436  Biso 1.000000     C
    C   1.0     0.392833     0.001470     0.289046  Biso 1.000000     C
    C   1.0     0.392827     0.001470     0.789061  Biso 1.000000     C
    C   1.0     0.392832     0.501479     0.289047  Biso 1.000000     C
    C   1.0     0.392850     0.501481     0.789052  Biso 1.000000     C
    C   1.0     0.892839     0.001471     0.289044  Biso 1.000000     C
    C   1.0     0.892856     0.001474     0.789053  Biso 1.000000     C
    C   1.0     0.892847     0.501481     0.289044  Biso 1.000000     C
    C   1.0     0.892838     0.501480     0.789057  Biso 1.000000     C
    C   1.0     0.325658     0.088169     0.217008  Biso 1.000000     C
    C   1.0     0.325654     0.088169     0.717021  Biso 1.000000     C
    C   1.0     0.325661     0.588178     0.217008  Biso 1.000000     C
    C   1.0     0.325659     0.588178     0.717016  Biso 1.000000     C
    C   1.0     0.825661     0.088170     0.217006  Biso 1.000000     C
    C   1.0     0.825667     0.088171     0.717016  Biso 1.000000     C
    C   1.0     0.825668     0.588179     0.217006  Biso 1.000000     C
    C   1.0     0.825659     0.588178     0.717019  Biso 1.000000     C
    C   1.0     0.367104     0.111631     0.327931  Biso 1.000000     C
    C   1.0     0.367098     0.111632     0.827944  Biso 1.000000     C
    C   1.0     0.367105     0.611640     0.327931  Biso 1.000000     C
    C   1.0     0.367116     0.611642     0.827938  Biso 1.000000     C
    C   1.0     0.867111     0.111632     0.327929  Biso 1.000000     C
    C   1.0     0.867117     0.111634     0.827939  Biso 1.000000     C
    C   1.0     0.867116     0.611642     0.327929  Biso 1.000000     C
    C   1.0     0.867113     0.611642     0.827940  Biso 1.000000     C
    C   1.0     0.419611     0.430053     0.302946  Biso 1.000000     C
    C   1.0     0.419643     0.430056     0.802947  Biso 1.000000     C
    C   1.0     0.419623     0.930064     0.302942  Biso 1.000000     C
    C   1.0     0.419604     0.930063     0.802960  Biso 1.000000     C
    C   1.0     0.919626     0.430055     0.302942  Biso 1.000000     C
    C   1.0     0.919618     0.430054     0.802955  Biso 1.000000     C
    C   1.0     0.919631     0.930064     0.302940  Biso 1.000000     C
    C   1.0     0.919622     0.930065     0.802955  Biso 1.000000     C
    C   1.0     0.356165     0.023533     0.227522  Biso 1.000000     C
    C   1.0     0.356151     0.023531     0.727538  Biso 1.000000     C
    C   1.0     0.356160     0.523540     0.227524  Biso 1.000000     C
    C   1.0     0.356173     0.523543     0.727531  Biso 1.000000     C
    C   1.0     0.856172     0.023533     0.227521  Biso 1.000000     C
    C   1.0     0.856166     0.023533     0.727534  Biso 1.000000     C
    C   1.0     0.856173     0.523542     0.227522  Biso 1.000000     C
    C   1.0     0.856163     0.523541     0.727535  Biso 1.000000     C
    C   1.0     0.399808     0.047459     0.339059  Biso 1.000000     C
    C   1.0     0.399792     0.047458     0.839075  Biso 1.000000     C
    C   1.0     0.399801     0.547467     0.339061  Biso 1.000000     C
    C   1.0     0.399828     0.547471     0.839065  Biso 1.000000     C
    C   1.0     0.899818     0.047460     0.339057  Biso 1.000000     C
    C   1.0     0.899815     0.047461     0.839069  Biso 1.000000     C
    C   1.0     0.899818     0.547469     0.339058  Biso 1.000000     C
    C   1.0     0.899814     0.547469     0.839069  Biso 1.000000     C
    C   1.0     0.142815     0.211002     0.498568  Biso 1.000000     C
    C   1.0     0.142800     0.211001     0.998580  Biso 1.000000     C
    C   1.0     0.142797     0.711006     0.498570  Biso 1.000000     C
    C   1.0     0.142814     0.711013     0.998579  Biso 1.000000     C
    C   1.0     0.642802     0.210999     0.498570  Biso 1.000000     C
    C   1.0     0.642815     0.211006     0.998578  Biso 1.000000     C
    C   1.0     0.642812     0.711010     0.498569  Biso 1.000000     C
    C   1.0     0.642812     0.711011     0.998578  Biso 1.000000     C
    C   1.0     0.075650     0.283025     0.411857  Biso 1.000000     C
    C   1.0     0.075639     0.283025     0.911868  Biso 1.000000     C
    C   1.0     0.075643     0.783031     0.411858  Biso 1.000000     C
    C   1.0     0.075646     0.783035     0.911867  Biso 1.000000     C
    C   1.0     0.575645     0.283023     0.411857  Biso 1.000000     C
    C   1.0     0.575645     0.283028     0.911866  Biso 1.000000     C
    C   1.0     0.575649     0.783034     0.411857  Biso 1.000000     C
    C   1.0     0.575648     0.783034     0.911867  Biso 1.000000     C
    C   1.0     0.117109     0.172114     0.388404  Biso 1.000000     C
    C   1.0     0.117099     0.172113     0.888416  Biso 1.000000     C
    C   1.0     0.117105     0.672120     0.388404  Biso 1.000000     C
    C   1.0     0.117112     0.672125     0.888414  Biso 1.000000     C
    C   1.0     0.617105     0.172113     0.388405  Biso 1.000000     C
    C   1.0     0.617111     0.172117     0.888414  Biso 1.000000     C
    C   1.0     0.617118     0.672124     0.388403  Biso 1.000000     C
    C   1.0     0.617111     0.672124     0.888413  Biso 1.000000     C
    C   1.0     0.169610     0.197099     0.069986  Biso 1.000000     C
    C   1.0     0.169597     0.197097     0.569997  Biso 1.000000     C
    C   1.0     0.169617     0.697108     0.069986  Biso 1.000000     C
    C   1.0     0.169602     0.697107     0.569996  Biso 1.000000     C
    C   1.0     0.669620     0.197103     0.069985  Biso 1.000000     C
    C   1.0     0.669604     0.197100     0.569997  Biso 1.000000     C
    C   1.0     0.669611     0.697106     0.069986  Biso 1.000000     C
    C   1.0     0.669604     0.697108     0.569996  Biso 1.000000     C
    C   1.0     0.106121     0.272512     0.476506  Biso 1.000000     C
    C   1.0     0.106119     0.272514     0.976516  Biso 1.000000     C
    C   1.0     0.106126     0.772520     0.476505  Biso 1.000000     C
    C   1.0     0.106126     0.772524     0.976515  Biso 1.000000     C
    C   1.0     0.606126     0.272513     0.476505  Biso 1.000000     C
    C   1.0     0.606128     0.272517     0.976514  Biso 1.000000     C
    C   1.0     0.606128     0.772522     0.476505  Biso 1.000000     C
    C   1.0     0.606125     0.772523     0.976515  Biso 1.000000     C
    C   1.0     0.149789     0.160986     0.452587  Biso 1.000000     C
    C   1.0     0.149787     0.160988     0.952598  Biso 1.000000     C
    C   1.0     0.149795     0.660995     0.452586  Biso 1.000000     C
    C   1.0     0.149802     0.661000     0.952596  Biso 1.000000     C
    C   1.0     0.649794     0.160987     0.452587  Biso 1.000000     C
    C   1.0     0.649803     0.160993     0.952596  Biso 1.000000     C
    C   1.0     0.649805     0.660999     0.452585  Biso 1.000000     C
    C   1.0     0.649797     0.660998     0.952596  Biso 1.000000     C
    C   1.0     0.107170     0.498535     0.210970  Biso 1.000000     C
    C   1.0     0.107161     0.498535     0.710985  Biso 1.000000     C
    C   1.0     0.107171     0.998544     0.210970  Biso 1.000000     C
    C   1.0     0.107159     0.998544     0.710985  Biso 1.000000     C
    C   1.0     0.607165     0.498535     0.210972  Biso 1.000000     C
    C   1.0     0.607173     0.498536     0.710982  Biso 1.000000     C
    C   1.0     0.607158     0.998543     0.210973  Biso 1.000000     C
    C   1.0     0.607167     0.998545     0.710985  Biso 1.000000     C
    C   1.0     0.174349     0.411835     0.283006  Biso 1.000000     C
    C   1.0     0.174344     0.411835     0.783019  Biso 1.000000     C
    C   1.0     0.174352     0.911844     0.283006  Biso 1.000000     C
    C   1.0     0.174342     0.911843     0.783020  Biso 1.000000     C
    C   1.0     0.674350     0.411835     0.283007  Biso 1.000000     C
    C   1.0     0.674352     0.411835     0.783018  Biso 1.000000     C
    C   1.0     0.674347     0.911843     0.283008  Biso 1.000000     C
    C   1.0     0.674351     0.911844     0.783019  Biso 1.000000     C
    C   1.0     0.132901     0.388375     0.172083  Biso 1.000000     C
    C   1.0     0.132888     0.388375     0.672097  Biso 1.000000     C
    C   1.0     0.132900     0.888384     0.172083  Biso 1.000000     C
    C   1.0     0.132893     0.888384     0.672096  Biso 1.000000     C
    C   1.0     0.632899     0.388375     0.172084  Biso 1.000000     C
    C   1.0     0.632900     0.388376     0.672094  Biso 1.000000     C
    C   1.0     0.632899     0.888383     0.172084  Biso 1.000000     C
    C   1.0     0.632898     0.888385     0.672096  Biso 1.000000     C
    C   1.0     0.080386     0.069952     0.197072  Biso 1.000000     C
    C   1.0     0.080379     0.069951     0.697086  Biso 1.000000     C
    C   1.0     0.080378     0.569960     0.197075  Biso 1.000000     C
    C   1.0     0.080382     0.569961     0.697086  Biso 1.000000     C
    C   1.0     0.580387     0.069951     0.197072  Biso 1.000000     C
    C   1.0     0.580374     0.069952     0.697090  Biso 1.000000     C
    C   1.0     0.580380     0.569961     0.197075  Biso 1.000000     C
    C   1.0     0.580374     0.569961     0.697089  Biso 1.000000     C
    C   1.0     0.143846     0.476473     0.272492  Biso 1.000000     C
    C   1.0     0.143847     0.476473     0.772505  Biso 1.000000     C
    C   1.0     0.143853     0.976483     0.272491  Biso 1.000000     C
    C   1.0     0.143846     0.976482     0.772505  Biso 1.000000     C
    C   1.0     0.643852     0.476474     0.272492  Biso 1.000000     C
    C   1.0     0.643847     0.476473     0.772504  Biso 1.000000     C
    C   1.0     0.643855     0.976483     0.272491  Biso 1.000000     C
    C   1.0     0.643848     0.976482     0.772505  Biso 1.000000     C
    C   1.0     0.100200     0.452548     0.160955  Biso 1.000000     C
    C   1.0     0.100193     0.452549     0.660969  Biso 1.000000     C
    C   1.0     0.100203     0.952557     0.160955  Biso 1.000000     C
    C   1.0     0.100198     0.952558     0.660968  Biso 1.000000     C
    C   1.0     0.600202     0.452549     0.160956  Biso 1.000000     C
    C   1.0     0.600197     0.452549     0.660968  Biso 1.000000     C
    C   1.0     0.600208     0.952558     0.160955  Biso 1.000000     C
    C   1.0     0.600196     0.952558     0.660969  Biso 1.000000     C
    N   1.0     0.420864     0.267509     0.130715  Biso 1.000000     N
    N   1.0     0.420872     0.267514     0.630724  Biso 1.000000     N
    N   1.0     0.420878     0.767520     0.130713  Biso 1.000000     N
    N   1.0     0.420871     0.767520     0.630723  Biso 1.000000     N
    N   1.0     0.920877     0.267514     0.130713  Biso 1.000000     N
    N   1.0     0.920864     0.267510     0.630724  Biso 1.000000     N
    N   1.0     0.920866     0.767518     0.130714  Biso 1.000000     N
    N   1.0     0.920870     0.767521     0.630724  Biso 1.000000     N
    N   1.0     0.329149     0.130727     0.267535  Biso 1.000000     N
    N   1.0     0.329142     0.130728     0.767548  Biso 1.000000     N
    N   1.0     0.329149     0.630736     0.267536  Biso 1.000000     N
    N   1.0     0.329162     0.630738     0.767542  Biso 1.000000     N
    N   1.0     0.829153     0.130728     0.267534  Biso 1.000000     N
    N   1.0     0.829165     0.130730     0.767542  Biso 1.000000     N
    N   1.0     0.829160     0.630738     0.267533  Biso 1.000000     N
    N   1.0     0.829153     0.630737     0.767545  Biso 1.000000     N
    N   1.0     0.079139     0.232496     0.369302  Biso 1.000000     N
    N   1.0     0.079127     0.232496     0.869314  Biso 1.000000     N
    N   1.0     0.079127     0.732502     0.369304  Biso 1.000000     N
    N   1.0     0.079139     0.732507     0.869312  Biso 1.000000     N
    N   1.0     0.579129     0.232494     0.369303  Biso 1.000000     N
    N   1.0     0.579139     0.232499     0.869312  Biso 1.000000     N
    N   1.0     0.579139     0.732505     0.369302  Biso 1.000000     N
    N   1.0     0.579137     0.732506     0.869312  Biso 1.000000     N
    N   1.0     0.170854     0.369278     0.232479  Biso 1.000000     N
    N   1.0     0.170845     0.369277     0.732492  Biso 1.000000     N
    N   1.0     0.170855     0.869286     0.232479  Biso 1.000000     N
    N   1.0     0.170845     0.869286     0.732492  Biso 1.000000     N
    N   1.0     0.670850     0.369277     0.232480  Biso 1.000000     N
    N   1.0     0.670854     0.369278     0.732490  Biso 1.000000     N
    N   1.0     0.670846     0.869285     0.232481  Biso 1.000000     N
    N   1.0     0.670850     0.869286     0.732491  Biso 1.000000     N
    O   1.0     0.283300     0.354499     0.414130  Biso 1.000000     O
    O   1.0     0.283321     0.354512     0.914138  Biso 1.000000     O
    O   1.0     0.283313     0.854512     0.414129  Biso 1.000000     O
    O   1.0     0.283303     0.854511     0.914139  Biso 1.000000     O
    O   1.0     0.783325     0.354510     0.414128  Biso 1.000000     O
    O   1.0     0.783298     0.354504     0.914140  Biso 1.000000     O
    O   1.0     0.783306     0.854509     0.414130  Biso 1.000000     O
    O   1.0     0.783311     0.854515     0.914140  Biso 1.000000     O
    O   1.0     0.457983     0.258111     0.191560  Biso 1.000000     O
    O   1.0     0.457972     0.258104     0.691571  Biso 1.000000     O
    O   1.0     0.457981     0.758114     0.191560  Biso 1.000000     O
    O   1.0     0.457973     0.758116     0.691571  Biso 1.000000     O
    O   1.0     0.957980     0.258103     0.191560  Biso 1.000000     O
    O   1.0     0.957973     0.258111     0.691571  Biso 1.000000     O
    O   1.0     0.957991     0.758116     0.191557  Biso 1.000000     O
    O   1.0     0.957979     0.758114     0.691570  Biso 1.000000     O
    O   1.0     0.362858     0.258181     0.391269  Biso 1.000000     O
    O   1.0     0.362866     0.258187     0.891283  Biso 1.000000     O
    O   1.0     0.362867     0.758191     0.391270  Biso 1.000000     O
    O   1.0     0.362859     0.758192     0.891279  Biso 1.000000     O
    O   1.0     0.862872     0.258186     0.391271  Biso 1.000000     O
    O   1.0     0.862850     0.258183     0.891279  Biso 1.000000     O
    O   1.0     0.862859     0.758190     0.391268  Biso 1.000000     O
    O   1.0     0.862856     0.758192     0.891280  Biso 1.000000     O
    O   1.0     0.466658     0.414155     0.354572  Biso 1.000000     O
    O   1.0     0.466621     0.414153     0.854598  Biso 1.000000     O
    O   1.0     0.466651     0.914164     0.354575  Biso 1.000000     O
    O   1.0     0.466654     0.914166     0.854585  Biso 1.000000     O
    O   1.0     0.966645     0.414155     0.354579  Biso 1.000000     O
    O   1.0     0.966643     0.414155     0.854589  Biso 1.000000     O
    O   1.0     0.966646     0.914164     0.354577  Biso 1.000000     O
    O   1.0     0.966633     0.914165     0.854595  Biso 1.000000     O
    O   1.0     0.292017     0.191557     0.258118  Biso 1.000000     O
    O   1.0     0.292011     0.191556     0.758126  Biso 1.000000     O
    O   1.0     0.292018     0.691565     0.258115  Biso 1.000000     O
    O   1.0     0.292008     0.691564     0.758135  Biso 1.000000     O
    O   1.0     0.792018     0.191557     0.258120  Biso 1.000000     O
    O   1.0     0.792001     0.191553     0.758131  Biso 1.000000     O
    O   1.0     0.792016     0.691565     0.258119  Biso 1.000000     O
    O   1.0     0.792013     0.691565     0.758128  Biso 1.000000     O
    O   1.0     0.387184     0.391294     0.258190  Biso 1.000000     O
    O   1.0     0.387164     0.391298     0.758208  Biso 1.000000     O
    O   1.0     0.387179     0.891305     0.258192  Biso 1.000000     O
    O   1.0     0.387183     0.891304     0.758202  Biso 1.000000     O
    O   1.0     0.887179     0.391297     0.258193  Biso 1.000000     O
    O   1.0     0.887175     0.391296     0.758204  Biso 1.000000     O
    O   1.0     0.887176     0.891306     0.258193  Biso 1.000000     O
    O   1.0     0.887176     0.891307     0.758205  Biso 1.000000     O
    O   1.0     0.216684     0.145493     0.085887  Biso 1.000000     O
    O   1.0     0.216680     0.145495     0.585896  Biso 1.000000     O
    O   1.0     0.216680     0.645498     0.085887  Biso 1.000000     O
    O   1.0     0.216687     0.645506     0.585897  Biso 1.000000     O
    O   1.0     0.716677     0.145491     0.085888  Biso 1.000000     O
    O   1.0     0.716681     0.145496     0.585898  Biso 1.000000     O
    O   1.0     0.716686     0.645501     0.085887  Biso 1.000000     O
    O   1.0     0.716684     0.645505     0.585897  Biso 1.000000     O
    O   1.0     0.042019     0.241904     0.308459  Biso 1.000000     O
    O   1.0     0.042021     0.241905     0.808467  Biso 1.000000     O
    O   1.0     0.042035     0.741915     0.308455  Biso 1.000000     O
    O   1.0     0.042020     0.741912     0.808468  Biso 1.000000     O
    O   1.0     0.542030     0.241905     0.308456  Biso 1.000000     O
    O   1.0     0.542017     0.241902     0.808468  Biso 1.000000     O
    O   1.0     0.542029     0.741914     0.308457  Biso 1.000000     O
    O   1.0     0.542021     0.741914     0.808468  Biso 1.000000     O
    O   1.0     0.137141     0.241820     0.108744  Biso 1.000000     O
    O   1.0     0.137141     0.241822     0.608754  Biso 1.000000     O
    O   1.0     0.137142     0.741828     0.108743  Biso 1.000000     O
    O   1.0     0.137140     0.741830     0.608754  Biso 1.000000     O
    O   1.0     0.637137     0.241819     0.108742  Biso 1.000000     O
    O   1.0     0.637134     0.241821     0.608754  Biso 1.000000     O
    O   1.0     0.637144     0.741829     0.108742  Biso 1.000000     O
    O   1.0     0.637139     0.741831     0.608753  Biso 1.000000     O
    O   1.0     0.033345     0.085849     0.145444  Biso 1.000000     O
    O   1.0     0.033344     0.085850     0.645456  Biso 1.000000     O
    O   1.0     0.033352     0.585859     0.145441  Biso 1.000000     O
    O   1.0     0.033341     0.585859     0.645458  Biso 1.000000     O
    O   1.0     0.533351     0.085849     0.145441  Biso 1.000000     O
    O   1.0     0.533344     0.085850     0.645457  Biso 1.000000     O
    O   1.0     0.533353     0.585859     0.145442  Biso 1.000000     O
    O   1.0     0.533345     0.585860     0.645456  Biso 1.000000     O
    O   1.0     0.207990     0.308449     0.241893  Biso 1.000000     O
    O   1.0     0.207987     0.308450     0.741904  Biso 1.000000     O
    O   1.0     0.207993     0.808458     0.241894  Biso 1.000000     O
    O   1.0     0.207992     0.808460     0.741904  Biso 1.000000     O
    O   1.0     0.707995     0.308450     0.241892  Biso 1.000000     O
    O   1.0     0.707983     0.308448     0.741903  Biso 1.000000     O
    O   1.0     0.708003     0.808461     0.241891  Biso 1.000000     O
    O   1.0     0.707989     0.808458     0.741903  Biso 1.000000     O
    O   1.0     0.112819     0.108712     0.241825  Biso 1.000000     O
    O   1.0     0.112816     0.108712     0.741837  Biso 1.000000     O
    O   1.0     0.112824     0.608720     0.241823  Biso 1.000000     O
    O   1.0     0.112816     0.608722     0.741837  Biso 1.000000     O
    O   1.0     0.612818     0.108711     0.241825  Biso 1.000000     O
    O   1.0     0.612820     0.108712     0.741837  Biso 1.000000     O
    O   1.0     0.612824     0.608721     0.241824  Biso 1.000000     O
    O   1.0     0.612822     0.608722     0.741835  Biso 1.000000     O
   Cd   1.0     0.375021     0.287278     0.287260  Biso 1.000000    Cd
   Cd   1.0     0.375011     0.287283     0.787276  Biso 1.000000    Cd
   Cd   1.0     0.375022     0.787289     0.287261  Biso 1.000000    Cd
   Cd   1.0     0.375013     0.787288     0.787270  Biso 1.000000    Cd
   Cd   1.0     0.875015     0.287282     0.287262  Biso 1.000000    Cd
   Cd   1.0     0.875012     0.287279     0.787270  Biso 1.000000    Cd
   Cd   1.0     0.875019     0.787289     0.287260  Biso 1.000000    Cd
   Cd   1.0     0.875012     0.787292     0.787273  Biso 1.000000    Cd
   Cd   1.0     0.124985     0.212726     0.212756  Biso 1.000000    Cd
   Cd   1.0     0.124985     0.212726     0.712764  Biso 1.000000    Cd
   Cd   1.0     0.124991     0.712734     0.212753  Biso 1.000000    Cd
   Cd   1.0     0.124981     0.712735     0.712765  Biso 1.000000    Cd
   Cd   1.0     0.624988     0.212724     0.212751  Biso 1.000000    Cd
   Cd   1.0     0.624977     0.212726     0.712765  Biso 1.000000    Cd
   Cd   1.0     0.624990     0.712735     0.212753  Biso 1.000000    Cd
   Cd   1.0     0.624985     0.712736     0.712764  Biso 1.000000    Cd
