#======================================================================

# CRYSTAL DATA

#----------------------------------------------------------------------

data_VESTA_phase_1


_pd_phase_name                         MOF
_cell_length_a                         13.40000
_cell_length_b                         13.40100
_cell_length_c                         13.40100
_cell_angle_alpha                      59.97700
_cell_angle_beta                       59.99500
_cell_angle_gamma                      59.99500
_symmetry_space_group_name_H-M         "P 1"
_symmetry_Int_Tables_number            1

loop_
_symmetry_equiv_pos_as_xyz
   "x, y, z"

loop_
   _atom_site_label
   _atom_site_occupancy
   _atom_site_fract_x
   _atom_site_fract_y
   _atom_site_fract_z
   _atom_site_adp_type
   _atom_site_B_iso_or_equiv
   _atom_site_type_symbol
    H   1.0     0.508606     0.346604     0.798402  Biso 1.000000     H
    H   1.0     0.846344     0.000000     0.346666  Biso 1.000000     H
    H   1.0     0.298203     0.346724     0.000000  Biso 1.000000     H
    H   1.0     0.846270     0.798686     0.346424  Biso 1.000000     H
    H   1.0     0.508602     0.798411     0.346595  Biso 1.000000     H
    H   1.0     0.846267     0.346431     0.798679  Biso 1.000000     H
    H   1.0     0.298193     0.000000     0.346717  Biso 1.000000     H
    H   1.0     0.846334     0.346672     0.000000  Biso 1.000000     H
    H   1.0     0.508717     0.346569     0.346577  Biso 1.000000     H
    H   1.0     0.846663     0.798176     0.000000  Biso 1.000000     H
    H   1.0     0.298478     0.346463     0.346472  Biso 1.000000     H
    H   1.0     0.846665     0.000000     0.798161  Biso 1.000000     H
    H   1.0     0.153287    -0.008585     0.201839  Biso 1.000000     H
    H   1.0     0.491234     0.653435     0.653423  Biso 1.000000     H
    H   1.0     0.153290     0.201827    -0.008582  Biso 1.000000     H
    H   1.0     0.701474     0.653541     0.653529  Biso 1.000000     H
    H   1.0     0.701757    -0.008713     0.653287  Biso 1.000000     H
    H   1.0     0.153682     0.653575     0.201323  Biso 1.000000     H
    H   1.0     0.491349     0.201594     0.653408  Biso 1.000000     H
    H   1.0     0.153615     0.653335    -0.008848  Biso 1.000000     H
    H   1.0     0.153605    -0.008848     0.653337  Biso 1.000000     H
    H   1.0     0.701747     0.653279    -0.008712  Biso 1.000000     H
    H   1.0     0.153678     0.201319     0.653580  Biso 1.000000     H
    H   1.0     0.491344     0.653399     0.201600  Biso 1.000000     H
    C   1.0     0.412228     0.389479     0.808880  Biso 1.000000     C
    C   1.0     0.889312     0.912422     0.389493  Biso 1.000000     C
    C   1.0     0.308762     0.389551     0.912305  Biso 1.000000     C
    C   1.0     0.889264     0.809055     0.389403  Biso 1.000000     C
    C   1.0     0.412224     0.808885     0.389484  Biso 1.000000     C
    C   1.0     0.889273     0.389396     0.809051  Biso 1.000000     C
    C   1.0     0.308756     0.912309     0.389544  Biso 1.000000     C
    C   1.0     0.889303     0.389500     0.912420  Biso 1.000000     C
    C   1.0     0.412312     0.389472     0.389469  Biso 1.000000     C
    C   1.0     0.889523     0.808728     0.912188  Biso 1.000000     C
    C   1.0     0.308916     0.389425     0.389422  Biso 1.000000     C
    C   1.0     0.889524     0.912194     0.808719  Biso 1.000000     C
    C   1.0     0.110428     0.087810     0.191281  Biso 1.000000     C
    C   1.0     0.587639     0.610532     0.610532  Biso 1.000000     C
    C   1.0     0.110429     0.191276     0.087812  Biso 1.000000     C
    C   1.0     0.691035     0.610579     0.610579  Biso 1.000000     C
    C   1.0     0.691194     0.087696     0.610459  Biso 1.000000     C
    C   1.0     0.110677     0.610609     0.190951  Biso 1.000000     C
    C   1.0     0.587727     0.191120     0.610518  Biso 1.000000     C
    C   1.0     0.110647     0.610505     0.087582  Biso 1.000000     C
    C   1.0     0.110638     0.087582     0.610509  Biso 1.000000     C
    C   1.0     0.691188     0.610452     0.087696  Biso 1.000000     C
    C   1.0     0.110685     0.190950     0.610599  Biso 1.000000     C
    C   1.0     0.587723     0.610524     0.191122  Biso 1.000000     C
    N   1.0     0.374258     0.457646     0.710322  Biso 1.000000     N
    N   1.0     0.957625     0.874289     0.457747  Biso 1.000000     N
    N   1.0     0.210270     0.457714     0.874250  Biso 1.000000     N
    N   1.0     0.957582     0.710426     0.457586  Biso 1.000000     N
    N   1.0     0.374258     0.710325     0.457638  Biso 1.000000     N
    N   1.0     0.957578     0.457592     0.710424  Biso 1.000000     N
    N   1.0     0.210267     0.874250     0.457712  Biso 1.000000     N
    N   1.0     0.957621     0.457748     0.874291  Biso 1.000000     N
    N   1.0     0.374240     0.457725     0.457732  Biso 1.000000     N
    N   1.0     0.957742     0.710218     0.874204  Biso 1.000000     N
    N   1.0     0.210350     0.457657     0.457665  Biso 1.000000     N
    N   1.0     0.957743     0.874204     0.710214  Biso 1.000000     N
    N   1.0     0.042208     0.125800     0.289786  Biso 1.000000     N
    N   1.0     0.625712     0.542278     0.542268  Biso 1.000000     N
    N   1.0     0.042210     0.289786     0.125796  Biso 1.000000     N
    N   1.0     0.789601     0.542347     0.542337  Biso 1.000000     N
    N   1.0     0.789684     0.125755     0.542289  Biso 1.000000     N
    N   1.0     0.042374     0.542411     0.289578  Biso 1.000000     N
    N   1.0     0.625692     0.289680     0.542362  Biso 1.000000     N
    N   1.0     0.042331     0.542255     0.125710  Biso 1.000000     N
    N   1.0     0.042327     0.125715     0.542253  Biso 1.000000     N
    N   1.0     0.789680     0.542291     0.125751  Biso 1.000000     N
    N   1.0     0.042369     0.289579     0.542415  Biso 1.000000     N
    N   1.0     0.625693     0.542358     0.289679  Biso 1.000000     N
    N   1.0     0.251525     0.498353     0.751507  Biso 1.000000     N
    N   1.0     0.998390     0.751548     0.498375  Biso 1.000000     N
    N   1.0     0.251526     0.751507     0.498361  Biso 1.000000     N
    N   1.0     0.998396     0.498366     0.751550  Biso 1.000000     N
    N   1.0     0.251512     0.498445     0.498429  Biso 1.000000     N
    N   1.0     0.998408     0.751461     0.751462  Biso 1.000000     N
    N   1.0     0.001543     0.248542     0.248538  Biso 1.000000     N
    N   1.0     0.748440     0.501558     0.501572  Biso 1.000000     N
    N   1.0     0.748425     0.248498     0.501639  Biso 1.000000     N
    N   1.0     0.001556     0.501636     0.248451  Biso 1.000000     N
    N   1.0     0.001563     0.248456     0.501625  Biso 1.000000     N
    N   1.0     0.748425     0.501651     0.248495  Biso 1.000000     N
   Cd   1.0     0.499975     0.500002     0.500001  Biso 1.000000    Cd
   Cd   1.0    -0.000015     0.000019     0.500000  Biso 1.000000    Cd
   Cd   1.0    -0.000016     0.500001     0.000016  Biso 1.000000    Cd
   Cd   1.0    -0.000012     0.500002     0.500001  Biso 1.000000    Cd
   Cd   1.0     0.124969     0.624928     0.624929  Biso 1.000000    Cd
   Cd   1.0     0.874983     0.375076     0.375071  Biso 1.000000    Cd
