#======================================================================

# CRYSTAL DATA

#----------------------------------------------------------------------

data_VESTA_phase_1


_pd_phase_name                         MOF
_cell_length_a                         14.82600
_cell_length_b                         21.75900
_cell_length_c                         12.74800
_cell_angle_alpha                      107.62200
_cell_angle_beta                       89.99700
_cell_angle_gamma                      90.00000
_symmetry_space_group_name_H-M         "P 1"
_symmetry_Int_Tables_number            1

loop_
_symmetry_equiv_pos_as_xyz
   "x, y, z"

loop_
   _atom_site_label
   _atom_site_occupancy
   _atom_site_fract_x
   _atom_site_fract_y
   _atom_site_fract_z
   _atom_site_adp_type
   _atom_site_B_iso_or_equiv
   _atom_site_type_symbol
    H   1.0     0.105181     0.308980     0.021466  Biso 1.000000     H
    H   1.0     0.104556     0.809058     0.021784  Biso 1.000000     H
    H   1.0     0.604377     0.308769     0.020980  Biso 1.000000     H
    H   1.0     0.605005     0.808835     0.021310  Biso 1.000000     H
    H   1.0     0.105015     0.191124     0.978643  Biso 1.000000     H
    H   1.0     0.104390     0.691191     0.978982  Biso 1.000000     H
    H   1.0     0.604556     0.190901     0.978165  Biso 1.000000     H
    H   1.0     0.605183     0.690980     0.978497  Biso 1.000000     H
    H   1.0     0.395444     0.190904     0.978184  Biso 1.000000     H
    H   1.0     0.394820     0.690983     0.978518  Biso 1.000000     H
    H   1.0     0.894985     0.191127     0.978661  Biso 1.000000     H
    H   1.0     0.895612     0.691193     0.978996  Biso 1.000000     H
    H   1.0     0.395610     0.308772     0.021000  Biso 1.000000     H
    H   1.0     0.394985     0.808838     0.021328  Biso 1.000000     H
    H   1.0     0.894806     0.308983     0.021484  Biso 1.000000     H
    H   1.0     0.895434     0.809060     0.021801  Biso 1.000000     H
    H   1.0     0.000004     0.485410     0.756458  Biso 1.000000     H
    H   1.0    -0.000004     0.985492     0.755608  Biso 1.000000     H
    H   1.0     0.499993     0.485960     0.755600  Biso 1.000000     H
    H   1.0     0.500002     0.985586     0.756330  Biso 1.000000     H
    H   1.0     0.000007     0.399939     0.572354  Biso 1.000000     H
    H   1.0     0.000006     0.899759     0.571840  Biso 1.000000     H
    H   1.0     0.499997     0.400115     0.571955  Biso 1.000000     H
    H   1.0     0.499999     0.899870     0.572505  Biso 1.000000     H
    H   1.0     0.000003     0.257852     0.747804  Biso 1.000000     H
    H   1.0     0.000008     0.758172     0.748297  Biso 1.000000     H
    H   1.0     0.499996     0.258727     0.748810  Biso 1.000000     H
    H   1.0     0.499993     0.758228     0.748855  Biso 1.000000     H
    H   1.0     0.000001     0.349399     0.922575  Biso 1.000000     H
    H   1.0    -0.000002     0.849961     0.922688  Biso 1.000000     H
    H   1.0     0.499993     0.350632     0.923064  Biso 1.000000     H
    H   1.0     0.499996     0.850015     0.923315  Biso 1.000000     H
    H   1.0     0.000003     0.014382     0.243642  Biso 1.000000     H
    H   1.0     0.000008     0.514006     0.244390  Biso 1.000000     H
    H   1.0     0.499996     0.014478     0.244365  Biso 1.000000     H
    H   1.0     0.499995     0.514553     0.243535  Biso 1.000000     H
    H   1.0     0.000002     0.100097     0.427470  Biso 1.000000     H
    H   1.0    -0.000002     0.599854     0.428032  Biso 1.000000     H
    H   1.0     0.499993     0.100212     0.428134  Biso 1.000000     H
    H   1.0     0.499996     0.600028     0.427637  Biso 1.000000     H
    H   1.0     0.000003     0.241743     0.251124  Biso 1.000000     H
    H   1.0     0.000000     0.741236     0.251163  Biso 1.000000     H
    H   1.0     0.499996     0.241799     0.251677  Biso 1.000000     H
    H   1.0     0.499996     0.742109     0.252173  Biso 1.000000     H
    H   1.0     0.000004     0.149956     0.076663  Biso 1.000000     H
    H   1.0     0.000010     0.649327     0.076913  Biso 1.000000     H
    H   1.0     0.499999     0.150010     0.077286  Biso 1.000000     H
    H   1.0     0.499996     0.650558     0.077406  Biso 1.000000     H
    C   1.0     0.170616     0.423714     0.057417  Biso 1.000000     C
    C   1.0     0.170295     0.923938     0.057303  Biso 1.000000     C
    C   1.0     0.670077     0.424006     0.057151  Biso 1.000000     C
    C   1.0     0.670397     0.923876     0.057492  Biso 1.000000     C
    C   1.0     0.169362     0.283346     0.011649  Biso 1.000000     C
    C   1.0     0.168737     0.783423     0.011977  Biso 1.000000     C
    C   1.0     0.668632     0.283235     0.011393  Biso 1.000000     C
    C   1.0     0.669258     0.783301     0.011713  Biso 1.000000     C
    C   1.0     0.170409     0.076086     0.942466  Biso 1.000000     C
    C   1.0     0.170093     0.575955     0.942830  Biso 1.000000     C
    C   1.0     0.670297     0.076024     0.942651  Biso 1.000000     C
    C   1.0     0.670623     0.576247     0.942563  Biso 1.000000     C
    C   1.0     0.169266     0.216660     0.988252  Biso 1.000000     C
    C   1.0     0.168643     0.716726     0.988572  Biso 1.000000     C
    C   1.0     0.668735     0.216538     0.987989  Biso 1.000000     C
    C   1.0     0.669362     0.716615     0.988320  Biso 1.000000     C
    C   1.0     0.329706     0.076025     0.942656  Biso 1.000000     C
    C   1.0     0.329384     0.576248     0.942571  Biso 1.000000     C
    C   1.0     0.829594     0.076087     0.942468  Biso 1.000000     C
    C   1.0     0.829912     0.575955     0.942831  Biso 1.000000     C
    C   1.0     0.331264     0.216540     0.988003  Biso 1.000000     C
    C   1.0     0.330639     0.716616     0.988325  Biso 1.000000     C
    C   1.0     0.830732     0.216661     0.988257  Biso 1.000000     C
    C   1.0     0.831358     0.716727     0.988586  Biso 1.000000     C
    C   1.0     0.329907     0.424008     0.057153  Biso 1.000000     C
    C   1.0     0.329590     0.923878     0.057497  Biso 1.000000     C
    C   1.0     0.829367     0.423715     0.057420  Biso 1.000000     C
    C   1.0     0.829693     0.923938     0.057307  Biso 1.000000     C
    C   1.0     0.331357     0.283236     0.011399  Biso 1.000000     C
    C   1.0     0.330734     0.783303     0.011731  Biso 1.000000     C
    C   1.0     0.830628     0.283347     0.011663  Biso 1.000000     C
    C   1.0     0.831255     0.783423     0.011978  Biso 1.000000     C
    C   1.0     0.250385     0.389071     0.046919  Biso 1.000000     C
    C   1.0     0.249904     0.889129     0.047118  Biso 1.000000     C
    C   1.0     0.749600     0.389070     0.046921  Biso 1.000000     C
    C   1.0     0.750085     0.889128     0.047116  Biso 1.000000     C
    C   1.0     0.250405     0.318555     0.023530  Biso 1.000000     C
    C   1.0     0.249785     0.818621     0.023809  Biso 1.000000     C
    C   1.0     0.749582     0.318554     0.023526  Biso 1.000000     C
    C   1.0     0.750206     0.818621     0.023815  Biso 1.000000     C
    C   1.0     0.250097     0.110833     0.952844  Biso 1.000000     C
    C   1.0     0.249615     0.610892     0.953062  Biso 1.000000     C
    C   1.0     0.749905     0.110833     0.952841  Biso 1.000000     C
    C   1.0     0.750389     0.610892     0.953060  Biso 1.000000     C
    C   1.0     0.250216     0.181341     0.976152  Biso 1.000000     C
    C   1.0     0.249595     0.681408     0.976460  Biso 1.000000     C
    C   1.0     0.749784     0.181341     0.976155  Biso 1.000000     C
    C   1.0     0.750407     0.681407     0.976450  Biso 1.000000     C
    C   1.0     0.000005     0.434249     0.749608  Biso 1.000000     C
    C   1.0     0.000037     0.934373     0.749079  Biso 1.000000     C
    C   1.0     0.500017     0.434857     0.749192  Biso 1.000000     C
    C   1.0     0.499998     0.934460     0.749747  Biso 1.000000     C
    C   1.0     0.000004     0.386832     0.648280  Biso 1.000000     C
    C   1.0    -0.000030     0.886803     0.647906  Biso 1.000000     C
    C   1.0     0.499976     0.387228     0.648085  Biso 1.000000     C
    C   1.0     0.500001     0.886911     0.648567  Biso 1.000000     C
    C   1.0     0.000006     0.321438     0.644776  Biso 1.000000     C
    C   1.0     0.000042     0.821459     0.644744  Biso 1.000000     C
    C   1.0     0.500018     0.321910     0.645072  Biso 1.000000     C
    C   1.0     0.499993     0.821569     0.645400  Biso 1.000000     C
    C   1.0     0.000004     0.271496     0.543319  Biso 1.000000     C
    C   1.0    -0.000009     0.771358     0.543446  Biso 1.000000     C
    C   1.0     0.499988     0.271769     0.543825  Biso 1.000000     C
    C   1.0     0.499997     0.771521     0.544072  Biso 1.000000     C
    C   1.0     0.000002     0.307509     0.745797  Biso 1.000000     C
    C   1.0    -0.000029     0.807769     0.745975  Biso 1.000000     C
    C   1.0     0.499976     0.308303     0.746371  Biso 1.000000     C
    C   1.0     0.499998     0.807835     0.746586  Biso 1.000000     C
    C   1.0     0.000003     0.358200     0.842947  Biso 1.000000     C
    C   1.0     0.000000     0.858608     0.842939  Biso 1.000000     C
    C   1.0     0.500017     0.359203     0.843255  Biso 1.000000     C
    C   1.0     0.499995     0.858658     0.843562  Biso 1.000000     C
    C   1.0    -0.000009     0.065508     0.250227  Biso 1.000000     C
    C   1.0    -0.000039     0.565108     0.250795  Biso 1.000000     C
    C   1.0     0.499993     0.065598     0.250894  Biso 1.000000     C
    C   1.0     0.500007     0.565714     0.250382  Biso 1.000000     C
    C   1.0     0.000012     0.113057     0.351408  Biso 1.000000     C
    C   1.0     0.000040     0.612740     0.351900  Biso 1.000000     C
    C   1.0     0.499998     0.113167     0.352067  Biso 1.000000     C
    C   1.0     0.499986     0.613132     0.351708  Biso 1.000000     C
    C   1.0    -0.000008     0.178399     0.354576  Biso 1.000000     C
    C   1.0    -0.000041     0.678057     0.354907  Biso 1.000000     C
    C   1.0     0.499991     0.178512     0.355229  Biso 1.000000     C
    C   1.0     0.500007     0.678525     0.355206  Biso 1.000000     C
    C   1.0     0.999997     0.228445     0.455906  Biso 1.000000     C
    C   1.0     0.000018     0.728200     0.456152  Biso 1.000000     C
    C   1.0     0.499997     0.228612     0.456528  Biso 1.000000     C
    C   1.0     0.499991     0.728469     0.456661  Biso 1.000000     C
    C   1.0     0.000013     0.192135     0.253392  Biso 1.000000     C
    C   1.0     0.000042     0.691661     0.253605  Biso 1.000000     C
    C   1.0     0.500000     0.192202     0.253999  Biso 1.000000     C
    C   1.0     0.499986     0.692453     0.254183  Biso 1.000000     C
    C   1.0    -0.000008     0.141312     0.156415  Biso 1.000000     C
    C   1.0    -0.000036     0.640759     0.156724  Biso 1.000000     C
    C   1.0     0.499994     0.141363     0.157035  Biso 1.000000     C
    C   1.0     0.500007     0.641759     0.157037  Biso 1.000000     C
    N   1.0     0.101599     0.451978     0.067742  Biso 1.000000     N
    N   1.0     0.101481     0.952425     0.067359  Biso 1.000000     N
    N   1.0     0.601474     0.452750     0.067269  Biso 1.000000     N
    N   1.0     0.601568     0.952360     0.067723  Biso 1.000000     N
    N   1.0     0.101579     0.047605     0.932231  Biso 1.000000     N
    N   1.0     0.101493     0.547209     0.932720  Biso 1.000000     N
    N   1.0     0.601482     0.047540     0.932601  Biso 1.000000     N
    N   1.0     0.601608     0.547982     0.932234  Biso 1.000000     N
    N   1.0     0.398523     0.047543     0.932610  Biso 1.000000     N
    N   1.0     0.398400     0.547984     0.932244  Biso 1.000000     N
    N   1.0     0.898426     0.047607     0.932237  Biso 1.000000     N
    N   1.0     0.898515     0.547211     0.932723  Biso 1.000000     N
    N   1.0     0.398508     0.452753     0.067273  Biso 1.000000     N
    N   1.0     0.398417     0.952364     0.067731  Biso 1.000000     N
    N   1.0     0.898382     0.451979     0.067750  Biso 1.000000     N
    N   1.0     0.898504     0.952427     0.067365  Biso 1.000000     N
    N   1.0     0.000003     0.420481     0.845726  Biso 1.000000     N
    N   1.0    -0.000024     0.920838     0.845399  Biso 1.000000     N
    N   1.0     0.499982     0.421408     0.845580  Biso 1.000000     N
    N   1.0     0.500001     0.920885     0.846027  Biso 1.000000     N
    N   1.0     0.000008     0.079085     0.153949  Biso 1.000000     N
    N   1.0     0.000033     0.578555     0.154405  Biso 1.000000     N
    N   1.0     0.499999     0.079133     0.154574  Biso 1.000000     N
    N   1.0     0.499988     0.579480     0.154263  Biso 1.000000     N
   Zn   1.0     0.000001     0.000001    -0.000220  Biso 1.000000    Zn
   Zn   1.0     0.000002     0.499169     0.000000  Biso 1.000000    Zn
   Zn   1.0     0.499995    -0.000014     0.000217  Biso 1.000000    Zn
   Zn   1.0     0.500000     0.500802     0.999955  Biso 1.000000    Zn
