#======================================================================

# CRYSTAL DATA

#----------------------------------------------------------------------

data_VESTA_phase_1


_pd_phase_name                         MOF
_cell_length_a                         11.67100
_cell_length_b                         12.27900
_cell_length_c                         14.17900
_cell_angle_alpha                      90.00200
_cell_angle_beta                       127.99700
_cell_angle_gamma                      89.98300
_symmetry_space_group_name_H-M         "P 1"
_symmetry_Int_Tables_number            1

loop_
_symmetry_equiv_pos_as_xyz
   "x, y, z"

loop_
   _atom_site_label
   _atom_site_occupancy
   _atom_site_fract_x
   _atom_site_fract_y
   _atom_site_fract_z
   _atom_site_adp_type
   _atom_site_B_iso_or_equiv
   _atom_site_type_symbol
    H   1.0     0.844749     0.046499     0.428432  Biso 1.000000     H
    H   1.0     0.591735     0.020605     0.882971  Biso 1.000000     H
    H   1.0     0.545145     0.830158     0.113263  Biso 1.000000     H
    H   1.0     0.750639     0.078489     0.534106  Biso 1.000000     H
    H   1.0     0.775424     0.068727     0.722226  Biso 1.000000     H
    H   1.0     0.182961     0.927071     0.907259  Biso 1.000000     H
    H   1.0     0.179040     0.932274     0.732509  Biso 1.000000     H
    H   1.0     0.655163     0.546407     0.571652  Biso 1.000000     H
    H   1.0     0.908071     0.520624     0.117031  Biso 1.000000     H
    H   1.0    -0.045048     0.330179     0.886872  Biso 1.000000     H
    H   1.0     0.749250     0.578394     0.465970  Biso 1.000000     H
    H   1.0     0.724485     0.568629     0.277857  Biso 1.000000     H
    H   1.0     0.317093     0.427044     0.092857  Biso 1.000000     H
    H   1.0     0.320998     0.432247     0.267598  Biso 1.000000     H
    H   1.0     0.155175     0.953427     0.571639  Biso 1.000000     H
    H   1.0     0.408195     0.979291     0.117105  Biso 1.000000     H
    H   1.0     0.454785     0.169738     0.886813  Biso 1.000000     H
    H   1.0     0.249284     0.921427     0.465968  Biso 1.000000     H
    H   1.0     0.224501     0.931179     0.277849  Biso 1.000000     H
    H   1.0     0.816966     0.072840     0.092808  Biso 1.000000     H
    H   1.0     0.820886     0.067650     0.267559  Biso 1.000000     H
    H   1.0     0.344762     0.453533     0.428409  Biso 1.000000     H
    H   1.0     0.091848     0.479274     0.883035  Biso 1.000000     H
    H   1.0     0.000000     0.669719     0.113194  Biso 1.000000     H
    H   1.0     0.250682     0.421528     0.534093  Biso 1.000000     H
    H   1.0     0.275455     0.431272     0.722211  Biso 1.000000     H
    H   1.0     0.682834     0.572878     0.907208  Biso 1.000000     H
    H   1.0     0.678918     0.567700     0.732461  Biso 1.000000     H
    C   1.0     0.551358     0.010650     0.934352  Biso 1.000000     C
    C   1.0     0.675682     0.724233     0.046442  Biso 1.000000     C
    C   1.0     0.744048     0.844644     0.955896  Biso 1.000000     C
    C   1.0     0.525808     0.904504     0.063265  Biso 1.000000     C
    C   1.0     0.848614     0.044083     0.615261  Biso 1.000000     C
    C   1.0     0.962663     0.000000     0.615251  Biso 1.000000     C
    C   1.0     0.860851     0.038507     0.719000  Biso 1.000000     C
    C   1.0     0.088498     0.959726     0.822849  Biso 1.000000     C
    C   1.0     0.666317     0.825237     0.998850  Biso 1.000000     C
    C   1.0     0.085242     0.963032     0.723537  Biso 1.000000     C
    C   1.0     0.579515     0.913253     0.997849  Biso 1.000000     C
    C   1.0     0.948694     0.014206     0.505971  Biso 1.000000     C
    C   1.0     0.948499     0.510649     0.065687  Biso 1.000000     C
    C   1.0     0.824257     0.224305     0.953609  Biso 1.000000     C
    C   1.0     0.755934     0.344667     0.044203  Biso 1.000000     C
    C   1.0    -0.025776     0.404523     0.936843  Biso 1.000000     C
    C   1.0     0.651304     0.543997     0.384824  Biso 1.000000     C
    C   1.0     0.537277     0.506301     0.384838  Biso 1.000000     C
    C   1.0     0.639074     0.538432     0.281090  Biso 1.000000     C
    C   1.0     0.411527     0.459696     0.177254  Biso 1.000000     C
    C   1.0     0.833645     0.325276     0.001218  Biso 1.000000     C
    C   1.0     0.414777     0.462993     0.276566  Biso 1.000000     C
    C   1.0     0.920393     0.413273     0.002200  Biso 1.000000     C
    C   1.0     0.551220     0.514169     0.494107  Biso 1.000000     C
    C   1.0     0.448575     0.989247     0.065726  Biso 1.000000     C
    C   1.0     0.324252     0.275664     0.953634  Biso 1.000000     C
    C   1.0     0.255881     0.155254     0.044178  Biso 1.000000     C
    C   1.0     0.474124     0.095392     0.936813  Biso 1.000000     C
    C   1.0     0.151311     0.955834     0.384813  Biso 1.000000     C
    C   1.0     0.037261    -0.006425     0.384820  Biso 1.000000     C
    C   1.0     0.139074     0.961401     0.281074  Biso 1.000000     C
    C   1.0     0.911428     0.040185     0.177220  Biso 1.000000     C
    C   1.0     0.333614     0.174660     0.001226  Biso 1.000000     C
    C   1.0     0.914685     0.036891     0.276533  Biso 1.000000     C
    C   1.0     0.420416     0.086643     0.002227  Biso 1.000000     C
    C   1.0     0.051230     0.985721     0.494099  Biso 1.000000     C
    C   1.0     0.051417     0.489250     0.934376  Biso 1.000000     C
    C   1.0     0.175672     0.775591     0.046466  Biso 1.000000     C
    C   1.0     0.243984     0.655228     0.955862  Biso 1.000000     C
    C   1.0     0.000000     0.595376     0.063219  Biso 1.000000     C
    C   1.0     0.348631     0.455920     0.615241  Biso 1.000000     C
    C   1.0     0.462649     0.493635     0.615223  Biso 1.000000     C
    C   1.0     0.360859     0.461483     0.718975  Biso 1.000000     C
    C   1.0     0.588398     0.540230     0.822809  Biso 1.000000     C
    C   1.0     0.166277     0.674622     0.998849  Biso 1.000000     C
    C   1.0     0.585149     0.536939     0.723499  Biso 1.000000     C
    C   1.0     0.079528     0.586625     0.997866  Biso 1.000000     C
    C   1.0     0.448705     0.485771     0.505954  Biso 1.000000     C
    N   1.0     0.979139     0.997049     0.822086  Biso 1.000000     N
    N   1.0     0.807012     0.868494     0.918031  Biso 1.000000     N
    N   1.0     0.679968     0.639498     0.088585  Biso 1.000000     N
    N   1.0     0.520819     0.497003     0.178010  Biso 1.000000     N
    N   1.0     0.692964     0.368472     0.082084  Biso 1.000000     N
    N   1.0     0.819904     0.139558     0.911452  Biso 1.000000     N
    N   1.0     0.020786     0.002857     0.177986  Biso 1.000000     N
    N   1.0     0.192913     0.131406     0.082039  Biso 1.000000     N
    N   1.0     0.319967     0.360400     0.911493  Biso 1.000000     N
    N   1.0     0.479112     0.502913     0.822056  Biso 1.000000     N
    N   1.0     0.306955     0.631425     0.917982  Biso 1.000000     N
    N   1.0     0.180024     0.860334     0.088626  Biso 1.000000     N
   Cd   1.0    -0.000014    -0.000054     0.000033  Biso 1.000000    Cd
   Cd   1.0     0.499966     0.499945     0.000027  Biso 1.000000    Cd
