#======================================================================

# CRYSTAL DATA

#----------------------------------------------------------------------

data_VESTA_phase_1


_pd_phase_name                         MOF
_cell_length_a                         11.80400
_cell_length_b                         11.43800
_cell_length_c                         27.32700
_cell_angle_alpha                      89.97100
_cell_angle_beta                       90.05700
_cell_angle_gamma                      82.26600
_symmetry_space_group_name_H-M         "P 1"
_symmetry_Int_Tables_number            1

loop_
_symmetry_equiv_pos_as_xyz
   "x, y, z"

loop_
   _atom_site_label
   _atom_site_occupancy
   _atom_site_fract_x
   _atom_site_fract_y
   _atom_site_fract_z
   _atom_site_adp_type
   _atom_site_B_iso_or_equiv
   _atom_site_type_symbol
    H   1.0     0.139518     0.584932     0.842028  Biso 1.000000     H
    H   1.0     0.996065     0.605093     0.773788  Biso 1.000000     H
    H   1.0     0.965468     0.982315     0.790923  Biso 1.000000     H
    H   1.0     0.105755     0.951011     0.860136  Biso 1.000000     H
    H   1.0     0.438283     0.884242     0.945551  Biso 1.000000     H
    H   1.0     0.574638     0.865066     0.017054  Biso 1.000000     H
    H   1.0     0.450437     0.539320     0.053922  Biso 1.000000     H
    H   1.0     0.318307     0.570122     0.981657  Biso 1.000000     H
    H   1.0     0.359963     0.914866     0.841842  Biso 1.000000     H
    H   1.0     0.502967     0.894785     0.773599  Biso 1.000000     H
    H   1.0     0.533827     0.517561     0.790917  Biso 1.000000     H
    H   1.0     0.393846     0.548769     0.860084  Biso 1.000000     H
    H   1.0     0.062095     0.615535     0.945874  Biso 1.000000     H
    H   1.0     0.926105     0.634784     0.017365  Biso 1.000000     H
    H   1.0     0.050087     0.960875     0.053850  Biso 1.000000     H
    H   1.0     0.181795     0.930006     0.981613  Biso 1.000000     H
    H   1.0     0.595118     0.130851     0.342692  Biso 1.000000     H
    H   1.0     0.616946     0.988551     0.272484  Biso 1.000000     H
    H   1.0     0.982304     0.968547     0.288085  Biso 1.000000     H
    H   1.0     0.949687     0.108523     0.358587  Biso 1.000000     H
    H   1.0     0.875288     0.444571     0.448474  Biso 1.000000     H
    H   1.0     0.853370     0.579399     0.521828  Biso 1.000000     H
    H   1.0     0.536980     0.447102     0.553577  Biso 1.000000     H
    H   1.0     0.570052     0.316940     0.479635  Biso 1.000000     H
    H   1.0     0.905820     0.368830     0.342836  Biso 1.000000     H
    H   1.0     0.883976     0.511053     0.272506  Biso 1.000000     H
    H   1.0     0.518627     0.531806     0.288060  Biso 1.000000     H
    H   1.0     0.551235     0.391841     0.358661  Biso 1.000000     H
    H   1.0     0.624767     0.055032     0.448148  Biso 1.000000     H
    H   1.0     0.646340     0.919472     0.521294  Biso 1.000000     H
    H   1.0     0.962781     0.051156     0.553809  Biso 1.000000     H
    H   1.0     0.929993     0.182139     0.480036  Biso 1.000000     H
    H   1.0     0.404861     0.869173     0.657323  Biso 1.000000     H
    H   1.0     0.383014     0.011479     0.727530  Biso 1.000000     H
    H   1.0     0.017660     0.031450     0.711922  Biso 1.000000     H
    H   1.0     0.050297     0.891469     0.641423  Biso 1.000000     H
    H   1.0     0.124699     0.555444     0.551540  Biso 1.000000     H
    H   1.0     0.146601     0.420621     0.478184  Biso 1.000000     H
    H   1.0     0.463001     0.552897     0.446432  Biso 1.000000     H
    H   1.0     0.429944     0.683055     0.520376  Biso 1.000000     H
    H   1.0     0.094157     0.631195     0.657171  Biso 1.000000     H
    H   1.0     0.115980     0.488983     0.727505  Biso 1.000000     H
    H   1.0     0.481333     0.468202     0.711961  Biso 1.000000     H
    H   1.0     0.448745     0.608160     0.641356  Biso 1.000000     H
    H   1.0     0.375218     0.944992     0.551866  Biso 1.000000     H
    H   1.0     0.353637     0.080555     0.478721  Biso 1.000000     H
    H   1.0     0.037215     0.948836     0.446200  Biso 1.000000     H
    H   1.0     0.070009     0.817854     0.519972  Biso 1.000000     H
    H   1.0     0.860426     0.415078     0.157984  Biso 1.000000     H
    H   1.0     0.003881     0.394921     0.226224  Biso 1.000000     H
    H   1.0     0.034492     0.017699     0.209087  Biso 1.000000     H
    H   1.0     0.894202     0.049000     0.139874  Biso 1.000000     H
    H   1.0     0.561670     0.115761     0.054458  Biso 1.000000     H
    H   1.0     0.425316     0.134939     0.982955  Biso 1.000000     H
    H   1.0     0.549517     0.460686     0.946089  Biso 1.000000     H
    H   1.0     0.681647     0.429882     0.018354  Biso 1.000000     H
    H   1.0     0.639986     0.085147     0.158170  Biso 1.000000     H
    H   1.0     0.496983     0.105233     0.226414  Biso 1.000000     H
    H   1.0     0.466141     0.482457     0.209098  Biso 1.000000     H
    H   1.0     0.606118     0.451243     0.139930  Biso 1.000000     H
    H   1.0     0.937858     0.384470     0.054140  Biso 1.000000     H
    H   1.0     0.073844     0.365224     0.982647  Biso 1.000000     H
    H   1.0     0.949863     0.039134     0.946160  Biso 1.000000     H
    H   1.0     0.818158     0.069999     0.018399  Biso 1.000000     H
    C   1.0     0.079072     0.876960     0.839953  Biso 1.000000     C
    C   1.0     0.001465     0.893267     0.801593  Biso 1.000000     C
    C   1.0     0.972773     0.795354     0.776078  Biso 1.000000     C
    C   1.0     0.894794     0.813197     0.731705  Biso 1.000000     C
    C   1.0     0.019826     0.682885     0.791883  Biso 1.000000     C
    C   1.0     0.097718     0.671248     0.830264  Biso 1.000000     C
    C   1.0     0.374549     0.634308     0.991619  Biso 1.000000     C
    C   1.0     0.448714     0.617481     0.031067  Biso 1.000000     C
    C   1.0     0.523102     0.699876     0.040863  Biso 1.000000     C
    C   1.0     0.518719     0.798474     0.010126  Biso 1.000000     C
    C   1.0     0.443508     0.809906     0.970791  Biso 1.000000     C
    C   1.0     0.609365     0.678320     0.082024  Biso 1.000000     C
    C   1.0     0.420422     0.622859     0.839882  Biso 1.000000     C
    C   1.0     0.497873     0.606601     0.801531  Biso 1.000000     C
    C   1.0     0.526398     0.704524     0.775964  Biso 1.000000     C
    C   1.0     0.604331     0.686776     0.731634  Biso 1.000000     C
    C   1.0     0.479377     0.816958     0.791725  Biso 1.000000     C
    C   1.0     0.401688     0.828552     0.830112  Biso 1.000000     C
    C   1.0     0.125705     0.865744     0.991645  Biso 1.000000     C
    C   1.0     0.051725     0.882628     0.031086  Biso 1.000000     C
    C   1.0     0.977386     0.800206     0.040974  Biso 1.000000     C
    C   1.0    -0.018103     0.701470     0.010349  Biso 1.000000     C
    C   1.0     0.056900     0.689979     0.971021  Biso 1.000000     C
    C   1.0     0.891027     0.821748     0.082049  Biso 1.000000     C
    C   1.0     0.878424     0.079396     0.338538  Biso 1.000000     C
    C   1.0     0.895485     0.001933     0.299325  Biso 1.000000     C
    C   1.0     0.801227     0.970612     0.273847  Biso 1.000000     C
    C   1.0     0.818899     0.892920     0.228670  Biso 1.000000     C
    C   1.0     0.691756     0.014331     0.290608  Biso 1.000000     C
    C   1.0     0.679259     0.091669     0.329949  Biso 1.000000     C
    C   1.0     0.631643     0.374366     0.491070  Biso 1.000000     C
    C   1.0     0.613530     0.447631     0.531459  Biso 1.000000     C
    C   1.0     0.692632     0.523895     0.543163  Biso 1.000000     C
    C   1.0     0.789270     0.522237     0.513297  Biso 1.000000     C
    C   1.0     0.802213     0.447813     0.473009  Biso 1.000000     C
    C   1.0     0.670563     0.609941     0.585316  Biso 1.000000     C
    C   1.0     0.622512     0.420728     0.338588  Biso 1.000000     C
    C   1.0     0.605436     0.498197     0.299337  Biso 1.000000     C
    C   1.0     0.699644     0.529340     0.273846  Biso 1.000000     C
    C   1.0     0.681707     0.607087     0.228652  Biso 1.000000     C
    C   1.0     0.809160     0.485418     0.290633  Biso 1.000000     C
    C   1.0     0.821684     0.408088     0.330024  Biso 1.000000     C
    C   1.0     0.868383     0.124528     0.491247  Biso 1.000000     C
    C   1.0     0.886324     0.050790     0.531552  Biso 1.000000     C
    C   1.0     0.807177     0.974420     0.542993  Biso 1.000000     C
    C   1.0     0.710602    -0.023457     0.512962  Biso 1.000000     C
    C   1.0     0.697829     0.051424     0.472774  Biso 1.000000     C
    C   1.0     0.828883     0.887980     0.585095  Biso 1.000000     C
    C   1.0     0.121554     0.920598     0.661474  Biso 1.000000     C
    C   1.0     0.104482     0.998061     0.700688  Biso 1.000000     C
    C   1.0     0.198735     0.029408     0.726161  Biso 1.000000     C
    C   1.0     0.181056     0.107112     0.771335  Biso 1.000000     C
    C   1.0     0.308210     0.985683     0.709406  Biso 1.000000     C
    C   1.0     0.320716     0.908345     0.670065  Biso 1.000000     C
    C   1.0     0.368346     0.625636     0.508941  Biso 1.000000     C
    C   1.0     0.386451     0.552372     0.468551  Biso 1.000000     C
    C   1.0     0.307342     0.476116     0.456847  Biso 1.000000     C
    C   1.0     0.210707     0.477778     0.486715  Biso 1.000000     C
    C   1.0     0.197771     0.552200     0.527004  Biso 1.000000     C
    C   1.0     0.329400     0.390071     0.414694  Biso 1.000000     C
    C   1.0     0.377462     0.579284     0.661429  Biso 1.000000     C
    C   1.0     0.394528     0.501823     0.700683  Biso 1.000000     C
    C   1.0     0.300312     0.470678     0.726169  Biso 1.000000     C
    C   1.0     0.318238     0.392916     0.771357  Biso 1.000000     C
    C   1.0     0.190800     0.514616     0.709382  Biso 1.000000     C
    C   1.0     0.178289     0.591937     0.669987  Biso 1.000000     C
    C   1.0     0.131614     0.875471     0.508762  Biso 1.000000     C
    C   1.0     0.113670     0.949210     0.468457  Biso 1.000000     C
    C   1.0     0.192810     0.025590     0.457019  Biso 1.000000     C
    C   1.0     0.289380     0.000000     0.487052  Biso 1.000000     C
    C   1.0     0.302159     0.948593     0.527239  Biso 1.000000     C
    C   1.0     0.171099     0.112027     0.414915  Biso 1.000000     C
    C   1.0     0.920882     0.123051     0.160058  Biso 1.000000     C
    C   1.0     0.998490     0.106746     0.198418  Biso 1.000000     C
    C   1.0     0.027180     0.204661     0.223932  Biso 1.000000     C
    C   1.0     0.105159     0.186817     0.268305  Biso 1.000000     C
    C   1.0     0.980121     0.317128     0.208129  Biso 1.000000     C
    C   1.0     0.902229     0.328763     0.169748  Biso 1.000000     C
    C   1.0     0.625404     0.365697     0.008391  Biso 1.000000     C
    C   1.0     0.551239     0.382525     0.968943  Biso 1.000000     C
    C   1.0     0.476849     0.300132     0.959147  Biso 1.000000     C
    C   1.0     0.481233     0.201532     0.989884  Biso 1.000000     C
    C   1.0     0.556445     0.190098     0.029218  Biso 1.000000     C
    C   1.0     0.390584     0.321691     0.917987  Biso 1.000000     C
    C   1.0     0.579540     0.377155     0.160132  Biso 1.000000     C
    C   1.0     0.502090     0.393415     0.198484  Biso 1.000000     C
    C   1.0     0.473558     0.295493     0.224049  Biso 1.000000     C
    C   1.0     0.395620     0.313242     0.268377  Biso 1.000000     C
    C   1.0     0.520578     0.183058     0.208288  Biso 1.000000     C
    C   1.0     0.598265     0.171462     0.169900  Biso 1.000000     C
    C   1.0     0.874247     0.134262     0.008367  Biso 1.000000     C
    C   1.0     0.948225     0.117381     0.968925  Biso 1.000000     C
    C   1.0     0.022563     0.199805     0.959037  Biso 1.000000     C
    C   1.0     0.000000     0.298539     0.989663  Biso 1.000000     C
    C   1.0     0.943052     0.310027     0.028992  Biso 1.000000     C
    C   1.0     0.108919     0.178266     0.917961  Biso 1.000000     C
    N   1.0     0.372314     0.729013     0.961731  Biso 1.000000     N
    N   1.0     0.127144     0.767399     0.853480  Biso 1.000000     N
    N   1.0     0.127927     0.770956     0.961841  Biso 1.000000     N
    N   1.0     0.372382     0.732394     0.853383  Biso 1.000000     N
    N   1.0     0.724601     0.374718     0.462109  Biso 1.000000     N
    N   1.0     0.771656     0.124207     0.353098  Biso 1.000000     N
    N   1.0     0.775559     0.124537     0.462102  Biso 1.000000     N
    N   1.0     0.729291     0.375701     0.353163  Biso 1.000000     N
    N   1.0     0.275388     0.625290     0.537902  Biso 1.000000     N
    N   1.0     0.228326     0.875810     0.646911  Biso 1.000000     N
    N   1.0     0.224437     0.875470     0.537908  Biso 1.000000     N
    N   1.0     0.270688     0.624304     0.646846  Biso 1.000000     N
    N   1.0     0.627639     0.270991     0.038279  Biso 1.000000     N
    N   1.0     0.872808     0.232612     0.146530  Biso 1.000000     N
    N   1.0     0.872025     0.229049     0.038171  Biso 1.000000     N
    N   1.0     0.627572     0.267619     0.146629  Biso 1.000000     N
    O   1.0     0.881485     0.717057     0.708455  Biso 1.000000     O
    O   1.0     0.851781     0.915053     0.720837  Biso 1.000000     O
    O   1.0     0.624239     0.770690     0.106243  Biso 1.000000     O
    O   1.0     0.657603     0.574641     0.087486  Biso 1.000000     O
    O   1.0     0.617211     0.782896     0.708248  Biso 1.000000     O
    O   1.0     0.647814     0.585021     0.720926  Biso 1.000000     O
    O   1.0     0.876094     0.729365     0.106274  Biso 1.000000     O
    O   1.0     0.842672     0.925390     0.087426  Biso 1.000000     O
    O   1.0     0.726195     0.885184     0.203934  Biso 1.000000     O
    O   1.0     0.916887     0.845170     0.218730  Biso 1.000000     O
    O   1.0     0.759250     0.621133     0.610798  Biso 1.000000     O
    O   1.0     0.570363     0.661278     0.589825  Biso 1.000000     O
    O   1.0     0.774267     0.614841     0.203897  Biso 1.000000     O
    O   1.0     0.583643     0.654872     0.218737  Biso 1.000000     O
    O   1.0     0.740115     0.877700     0.610614  Biso 1.000000     O
    O   1.0     0.928693     0.835574     0.589615  Biso 1.000000     O
    O   1.0     0.273750     0.114824     0.796081  Biso 1.000000     O
    O   1.0     0.083060     0.154826     0.781282  Biso 1.000000     O
    O   1.0     0.240709     0.378881     0.389214  Biso 1.000000     O
    O   1.0     0.429599     0.338730     0.410182  Biso 1.000000     O
    O   1.0     0.225682     0.385186     0.796118  Biso 1.000000     O
    O   1.0     0.416306     0.345151     0.781279  Biso 1.000000     O
    O   1.0     0.259863     0.122303     0.389393  Biso 1.000000     O
    O   1.0     0.071290     0.164435     0.410396  Biso 1.000000     O
    O   1.0     0.118467     0.282957     0.291555  Biso 1.000000     O
    O   1.0     0.148163     0.084960     0.279175  Biso 1.000000     O
    O   1.0     0.375707     0.229321     0.893768  Biso 1.000000     O
    O   1.0     0.342345     0.425369     0.912526  Biso 1.000000     O
    O   1.0     0.382743     0.217122     0.291764  Biso 1.000000     O
    O   1.0     0.352134     0.414997     0.279084  Biso 1.000000     O
    O   1.0     0.123848     0.270651     0.893736  Biso 1.000000     O
    O   1.0     0.157273     0.074625     0.912583  Biso 1.000000     O
   Zn   1.0     0.750159     0.750076     0.156819  Biso 1.000000    Zn
   Zn   1.0     0.749563     0.749738     0.662178  Biso 1.000000    Zn
   Zn   1.0     0.250388     0.250278     0.337832  Biso 1.000000    Zn
   Zn   1.0     0.249784     0.249941     0.843192  Biso 1.000000    Zn
   Pd   1.0     0.249941     0.749938     0.907107  Biso 1.000000    Pd
   Pd   1.0     0.750327     0.249805     0.407150  Biso 1.000000    Pd
   Pd   1.0     0.249664     0.750204     0.592861  Biso 1.000000    Pd
   Pd   1.0     0.750011     0.250069     0.092904  Biso 1.000000    Pd
