#======================================================================

# CRYSTAL DATA

#----------------------------------------------------------------------

data_VESTA_phase_1


_pd_phase_name                         MOF
_cell_length_a                         15.25400
_cell_length_b                         13.76100
_cell_length_c                         22.27600
_cell_angle_alpha                      89.97000
_cell_angle_beta                       90.02400
_cell_angle_gamma                      90.15400
_symmetry_space_group_name_H-M         "P 1"
_symmetry_Int_Tables_number            1

loop_
_symmetry_equiv_pos_as_xyz
   "x, y, z"

loop_
   _atom_site_label
   _atom_site_occupancy
   _atom_site_fract_x
   _atom_site_fract_y
   _atom_site_fract_z
   _atom_site_adp_type
   _atom_site_B_iso_or_equiv
   _atom_site_type_symbol
    H   1.0     0.486838     0.844645     0.670861  Biso 1.000000     H
    H   1.0     0.986848     0.844645     0.670866  Biso 1.000000     H
    H   1.0     0.059097     0.771004     0.701908  Biso 1.000000     H
    H   1.0     0.559108     0.771005     0.701906  Biso 1.000000     H
    H   1.0     0.374806     0.724645     0.672605  Biso 1.000000     H
    H   1.0     0.874813     0.724651     0.672603  Biso 1.000000     H
    H   1.0     0.441977     0.648869     0.716475  Biso 1.000000     H
    H   1.0     0.941980     0.648869     0.716475  Biso 1.000000     H
    H   1.0     0.044380     0.622477     0.633528  Biso 1.000000     H
    H   1.0     0.544390     0.622480     0.633527  Biso 1.000000     H
    H   1.0     0.436620     0.584351     0.617937  Biso 1.000000     H
    H   1.0     0.936630     0.584357     0.617937  Biso 1.000000     H
    H   1.0     0.022573     0.770632     0.568368  Biso 1.000000     H
    H   1.0     0.522581     0.770635     0.568369  Biso 1.000000     H
    H   1.0     0.412518     0.735978     0.555543  Biso 1.000000     H
    H   1.0     0.912530     0.735981     0.555541  Biso 1.000000     H
    H   1.0     0.463680     0.578673     0.510720  Biso 1.000000     H
    H   1.0     0.963694     0.578674     0.510718  Biso 1.000000     H
    H   1.0     0.073658     0.612715     0.523286  Biso 1.000000     H
    H   1.0     0.573664     0.612719     0.523286  Biso 1.000000     H
    H   1.0     0.445937     0.719248     0.438757  Biso 1.000000     H
    H   1.0     0.945953     0.719247     0.438755  Biso 1.000000     H
    H   1.0     0.056772     0.750984     0.449762  Biso 1.000000     H
    H   1.0     0.556780     0.750981     0.449761  Biso 1.000000     H
    H   1.0     0.504951     0.938577     0.903423  Biso 1.000000     H
    H   1.0     0.000000     0.938581     0.903419  Biso 1.000000     H
    H   1.0     0.402179     0.904578     0.910526  Biso 1.000000     H
    H   1.0     0.902171     0.904569     0.910523  Biso 1.000000     H
    H   1.0     0.010886     0.656604     0.171606  Biso 1.000000     H
    H   1.0     0.510894     0.656607     0.171608  Biso 1.000000     H
    H   1.0     0.440778     0.732404     0.202880  Biso 1.000000     H
    H   1.0     0.940793     0.732399     0.202882  Biso 1.000000     H
    H   1.0     0.125602     0.773737     0.172361  Biso 1.000000     H
    H   1.0     0.625611     0.773740     0.172367  Biso 1.000000     H
    H   1.0     0.060334     0.851691     0.216054  Biso 1.000000     H
    H   1.0     0.560340     0.851693     0.216055  Biso 1.000000     H
    H   1.0     0.457450     0.878914     0.133237  Biso 1.000000     H
    H   1.0     0.957457     0.878913     0.133238  Biso 1.000000     H
    H   1.0     0.065625     0.915186     0.117338  Biso 1.000000     H
    H   1.0     0.565642     0.915189     0.117340  Biso 1.000000     H
    H   1.0     0.477226     0.729828     0.068525  Biso 1.000000     H
    H   1.0     0.977231     0.729829     0.068525  Biso 1.000000     H
    H   1.0     0.087543     0.762990     0.055355  Biso 1.000000     H
    H   1.0     0.587559     0.762991     0.055358  Biso 1.000000     H
    H   1.0     0.037509     0.920880     0.010275  Biso 1.000000     H
    H   1.0     0.537531     0.920879     0.010277  Biso 1.000000     H
    H   1.0     0.427355     0.887764     0.022915  Biso 1.000000     H
    H   1.0     0.927352     0.887762     0.022915  Biso 1.000000     H
    H   1.0     0.054247     0.780031     0.938521  Biso 1.000000     H
    H   1.0     0.554266     0.780026     0.938526  Biso 1.000000     H
    H   1.0     0.443266     0.749072     0.949652  Biso 1.000000     H
    H   1.0     0.943268     0.749069     0.949650  Biso 1.000000     H
    H   1.0    -0.003993     0.560976     0.403874  Biso 1.000000     H
    H   1.0     0.496001     0.560977     0.403874  Biso 1.000000     H
    H   1.0     0.098649     0.595698     0.410830  Biso 1.000000     H
    H   1.0     0.598646     0.595687     0.410830  Biso 1.000000     H
    H   1.0     0.013171     0.155344     0.329157  Biso 1.000000     H
    H   1.0     0.513171     0.155345     0.329160  Biso 1.000000     H
    H   1.0     0.440899     0.228981     0.298112  Biso 1.000000     H
    H   1.0     0.940920     0.228978     0.298113  Biso 1.000000     H
    H   1.0     0.125201     0.275344     0.327406  Biso 1.000000     H
    H   1.0     0.625202     0.275345     0.327404  Biso 1.000000     H
    H   1.0     0.058028     0.351116     0.283534  Biso 1.000000     H
    H   1.0     0.558029     0.351116     0.283534  Biso 1.000000     H
    H   1.0     0.455623     0.377515     0.366485  Biso 1.000000     H
    H   1.0     0.955640     0.377516     0.366484  Biso 1.000000     H
    H   1.0     0.063388     0.415638     0.382072  Biso 1.000000     H
    H   1.0     0.563394     0.415640     0.382072  Biso 1.000000     H
    H   1.0     0.477431     0.229359     0.431643  Biso 1.000000     H
    H   1.0     0.977447     0.229363     0.431643  Biso 1.000000     H
    H   1.0     0.087490     0.264015     0.444469  Biso 1.000000     H
    H   1.0     0.587494     0.264015     0.444468  Biso 1.000000     H
    H   1.0     0.036332     0.421319     0.489297  Biso 1.000000     H
    H   1.0     0.536335     0.421320     0.489294  Biso 1.000000     H
    H   1.0     0.426349     0.387278     0.476725  Biso 1.000000     H
    H   1.0     0.926364     0.387285     0.476724  Biso 1.000000     H
    H   1.0     0.054058     0.280739     0.561259  Biso 1.000000     H
    H   1.0     0.554070     0.280743     0.561256  Biso 1.000000     H
    H   1.0     0.443228     0.249007     0.550246  Biso 1.000000     H
    H   1.0     0.943235     0.249006     0.550242  Biso 1.000000     H
    H   1.0    -0.004969     0.061410     0.096593  Biso 1.000000     H
    H   1.0     0.495041     0.061408     0.096592  Biso 1.000000     H
    H   1.0     0.097805     0.095403     0.089491  Biso 1.000000     H
    H   1.0     0.597814     0.095408     0.089493  Biso 1.000000     H
    H   1.0     0.489091     0.343391     0.828410  Biso 1.000000     H
    H   1.0     0.989099     0.343389     0.828406  Biso 1.000000     H
    H   1.0     0.059195     0.267591     0.797135  Biso 1.000000     H
    H   1.0     0.559209     0.267605     0.797132  Biso 1.000000     H
    H   1.0     0.374384     0.226244     0.827653  Biso 1.000000     H
    H   1.0     0.874382     0.226257     0.827657  Biso 1.000000     H
    H   1.0     0.439661     0.148297     0.783963  Biso 1.000000     H
    H   1.0     0.939650     0.148300     0.783967  Biso 1.000000     H
    H   1.0     0.042533     0.121082     0.866780  Biso 1.000000     H
    H   1.0     0.542560     0.121092     0.866782  Biso 1.000000     H
    H   1.0     0.434372     0.084803     0.882679  Biso 1.000000     H
    H   1.0     0.934364     0.084809     0.882683  Biso 1.000000     H
    H   1.0     0.022762     0.270164     0.931494  Biso 1.000000     H
    H   1.0     0.522770     0.270171     0.931495  Biso 1.000000     H
    H   1.0     0.412439     0.237000     0.944660  Biso 1.000000     H
    H   1.0     0.912448     0.237012     0.944664  Biso 1.000000     H
    H   1.0     0.462474     0.079114     0.989739  Biso 1.000000     H
    H   1.0     0.962472     0.079120     0.989743  Biso 1.000000     H
    H   1.0     0.072628     0.112225     0.977103  Biso 1.000000     H
    H   1.0     0.572649     0.112239     0.977105  Biso 1.000000     H
    H   1.0     0.445727     0.219961     0.061494  Biso 1.000000     H
    H   1.0     0.945747     0.219968     0.061497  Biso 1.000000     H
    H   1.0     0.056726     0.250914     0.050369  Biso 1.000000     H
    H   1.0     0.556727     0.250921     0.050373  Biso 1.000000     H
    H   1.0     0.504000     0.439007     0.596144  Biso 1.000000     H
    H   1.0     0.000000     0.439007     0.596146  Biso 1.000000     H
    H   1.0     0.401356     0.404301     0.589176  Biso 1.000000     H
    H   1.0     0.901360     0.404292     0.589181  Biso 1.000000     H
    C   1.0     0.300962     0.663004     0.798962  Biso 1.000000     C
    C   1.0     0.800963     0.663000     0.798960  Biso 1.000000     C
    C   1.0     0.303321     0.000000     0.760704  Biso 1.000000     C
    C   1.0     0.803345     0.000000     0.760650  Biso 1.000000     C
    C   1.0     0.132109     0.000000     0.764288  Biso 1.000000     C
    C   1.0     0.632078     0.000000     0.764210  Biso 1.000000     C
    C   1.0     0.131325     0.160432     0.699636  Biso 1.000000     C
    C   1.0     0.631322     0.160410     0.699629  Biso 1.000000     C
    C   1.0     0.442986     0.701140     0.679294  Biso 1.000000     C
    C   1.0     0.942990     0.701140     0.679294  Biso 1.000000     C
    C   1.0    -0.022107     0.649625     0.623693  Biso 1.000000     C
    C   1.0     0.477900     0.649623     0.623693  Biso 1.000000     C
    C   1.0     0.478581     0.707130     0.564880  Biso 1.000000     C
    C   1.0     0.978591     0.707129     0.564879  Biso 1.000000     C
    C   1.0     0.008010     0.642139     0.512940  Biso 1.000000     C
    C   1.0     0.508015     0.642139     0.512941  Biso 1.000000     C
    C   1.0     0.010404     0.689676     0.451024  Biso 1.000000     C
    C   1.0     0.510410     0.689675     0.451025  Biso 1.000000     C
    C   1.0     0.198947     0.837552     0.300776  Biso 1.000000     C
    C   1.0     0.698961     0.837546     0.300787  Biso 1.000000     C
    C   1.0     0.196368     0.499122     0.261996  Biso 1.000000     C
    C   1.0     0.696366     0.499114     0.262003  Biso 1.000000     C
    C   1.0     0.367632     0.498230     0.265681  Biso 1.000000     C
    C   1.0     0.867648     0.498202     0.265690  Biso 1.000000     C
    C   1.0     0.368583     0.339154     0.201770  Biso 1.000000     C
    C   1.0     0.868588     0.339145     0.201785  Biso 1.000000     C
    C   1.0     0.057964     0.798970     0.179176  Biso 1.000000     C
    C   1.0     0.557971     0.798969     0.179179  Biso 1.000000     C
    C   1.0     0.523535     0.850628     0.123395  Biso 1.000000     C
    C   1.0     0.000000     0.850624     0.123393  Biso 1.000000     C
    C   1.0     0.021843     0.792747     0.064737  Biso 1.000000     C
    C   1.0     0.521859     0.792747     0.064741  Biso 1.000000     C
    C   1.0     0.492792     0.857768     0.012631  Biso 1.000000     C
    C   1.0     0.992790     0.857771     0.012629  Biso 1.000000     C
    C   1.0     0.489982     0.810060     0.950780  Biso 1.000000     C
    C   1.0     0.989984     0.810057     0.950779  Biso 1.000000     C
    C   1.0     0.199037     0.336993     0.201041  Biso 1.000000     C
    C   1.0     0.699040     0.336980     0.201052  Biso 1.000000     C
    C   1.0     0.196658    -0.000876     0.239308  Biso 1.000000     C
    C   1.0     0.696674    -0.000883     0.239296  Biso 1.000000     C
    C   1.0     0.367897    -0.002141     0.235765  Biso 1.000000     C
    C   1.0     0.867905    -0.002123     0.235787  Biso 1.000000     C
    C   1.0     0.368657     0.839578     0.300403  Biso 1.000000     C
    C   1.0     0.868692     0.839569     0.300365  Biso 1.000000     C
    C   1.0     0.057022     0.298852     0.320718  Biso 1.000000     C
    C   1.0     0.557022     0.298848     0.320717  Biso 1.000000     C
    C   1.0     0.522112     0.350369     0.376319  Biso 1.000000     C
    C   1.0     0.000000     0.350367     0.376320  Biso 1.000000     C
    C   1.0     0.021428     0.292866     0.435135  Biso 1.000000     C
    C   1.0     0.521431     0.292864     0.435132  Biso 1.000000     C
    C   1.0     0.491997     0.357856     0.487071  Biso 1.000000     C
    C   1.0     0.992010     0.357860     0.487073  Biso 1.000000     C
    C   1.0     0.489597     0.310314     0.548986  Biso 1.000000     C
    C   1.0     0.989608     0.310309     0.548985  Biso 1.000000     C
    C   1.0     0.301031     0.162424     0.699208  Biso 1.000000     C
    C   1.0     0.801022     0.162444     0.699238  Biso 1.000000     C
    C   1.0     0.303606     0.500888     0.737974  Biso 1.000000     C
    C   1.0     0.803627     0.500867     0.738002  Biso 1.000000     C
    C   1.0     0.132356     0.501776     0.734329  Biso 1.000000     C
    C   1.0     0.632378     0.501761     0.734311  Biso 1.000000     C
    C   1.0     0.131384     0.660831     0.798233  Biso 1.000000     C
    C   1.0     0.631412     0.660818     0.798244  Biso 1.000000     C
    C   1.0     0.442026     0.201022     0.820840  Biso 1.000000     C
    C   1.0     0.942020     0.201024     0.820843  Biso 1.000000     C
    C   1.0    -0.023551     0.149369     0.876624  Biso 1.000000     C
    C   1.0     0.476471     0.149370     0.876623  Biso 1.000000     C
    C   1.0     0.478141     0.207249     0.935278  Biso 1.000000     C
    C   1.0     0.978145     0.207250     0.935278  Biso 1.000000     C
    C   1.0     0.007194     0.142227     0.987386  Biso 1.000000     C
    C   1.0     0.507210     0.142228     0.987388  Biso 1.000000     C
    C   1.0     0.010006     0.189930     0.049240  Biso 1.000000     C
    C   1.0     0.510013     0.189933     0.049241  Biso 1.000000     C
    N   1.0     0.354447     0.716737     0.817511  Biso 1.000000     N
    N   1.0     0.854435     0.716744     0.817514  Biso 1.000000     N
    N   1.0     0.358738     0.950345     0.779690  Biso 1.000000     N
    N   1.0     0.858775     0.950293     0.779590  Biso 1.000000     N
    N   1.0     0.077840     0.953258     0.786545  Biso 1.000000     N
    N   1.0     0.577889     0.953110     0.786480  Biso 1.000000     N
    N   1.0     0.077244     0.712498     0.817798  Biso 1.000000     N
    N   1.0     0.577273     0.712547     0.817749  Biso 1.000000     N
    N   1.0     0.493474     0.787048     0.699694  Biso 1.000000     N
    N   1.0     0.993484     0.787045     0.699697  Biso 1.000000     N
    N   1.0     0.464322     0.878992     0.902892  Biso 1.000000     N
    N   1.0     0.964317     0.878991     0.902893  Biso 1.000000     N
    N   1.0     0.145250     0.783655     0.318843  Biso 1.000000     N
    N   1.0     0.645261     0.783622     0.318820  Biso 1.000000     N
    N   1.0     0.140864     0.550207     0.280180  Biso 1.000000     N
    N   1.0     0.640869     0.550223     0.280172  Biso 1.000000     N
    N   1.0     0.421863     0.547976     0.287224  Biso 1.000000     N
    N   1.0     0.921872     0.547979     0.287215  Biso 1.000000     N
    N   1.0     0.422970     0.787680     0.319560  Biso 1.000000     N
    N   1.0     0.922986     0.787674     0.319549  Biso 1.000000     N
    N   1.0     0.005997     0.714579     0.200279  Biso 1.000000     N
    N   1.0     0.506003     0.714580     0.200282  Biso 1.000000     N
    N   1.0     0.036323     0.620812     0.403254  Biso 1.000000     N
    N   1.0     0.536322     0.620810     0.403254  Biso 1.000000     N
    N   1.0     0.145571     0.283222     0.182507  Biso 1.000000     N
    N   1.0     0.645561     0.283239     0.182504  Biso 1.000000     N
    N   1.0     0.141271     0.049634     0.220283  Biso 1.000000     N
    N   1.0     0.641245     0.049630     0.220332  Biso 1.000000     N
    N   1.0     0.422180     0.046749     0.213528  Biso 1.000000     N
    N   1.0     0.922144     0.046803     0.213532  Biso 1.000000     N
    N   1.0     0.422742     0.287424     0.182293  Biso 1.000000     N
    N   1.0     0.922734     0.287423     0.182283  Biso 1.000000     N
    N   1.0     0.006533     0.212939     0.300324  Biso 1.000000     N
    N   1.0     0.506533     0.212936     0.300323  Biso 1.000000     N
    N   1.0     0.035663     0.120993     0.097125  Biso 1.000000     N
    N   1.0     0.535670     0.120994     0.097125  Biso 1.000000     N
    N   1.0     0.354767     0.216262     0.681126  Biso 1.000000     N
    N   1.0     0.854758     0.216342     0.681228  Biso 1.000000     N
    N   1.0     0.359097     0.449784     0.719792  Biso 1.000000     N
    N   1.0     0.859122     0.449774     0.719812  Biso 1.000000     N
    N   1.0     0.078122     0.452026     0.712792  Biso 1.000000     N
    N   1.0     0.578117     0.452009     0.712807  Biso 1.000000     N
    N   1.0     0.077024     0.212333     0.680467  Biso 1.000000     N
    N   1.0     0.577032     0.212386     0.680525  Biso 1.000000     N
    N   1.0     0.493982     0.285418     0.799735  Biso 1.000000     N
    N   1.0     0.993991     0.285409     0.799737  Biso 1.000000     N
    N   1.0     0.463677     0.379175     0.596756  Biso 1.000000     N
    N   1.0     0.963685     0.379172     0.596755  Biso 1.000000     N
   Ni   1.0     0.217048     0.581098     0.767458  Biso 1.000000    Ni
   Ni   1.0     0.717064     0.581102     0.767450  Biso 1.000000    Ni
   Ni   1.0     0.283090     0.919327     0.269561  Biso 1.000000    Ni
   Ni   1.0     0.783094     0.919326     0.269566  Biso 1.000000    Ni
   Ni   1.0     0.282939     0.418884     0.232557  Biso 1.000000    Ni
   Ni   1.0     0.782941     0.418895     0.232549  Biso 1.000000    Ni
   Ni   1.0     0.216904     0.080648     0.730439  Biso 1.000000    Ni
   Ni   1.0     0.716916     0.080685     0.730478  Biso 1.000000    Ni
   Cd   1.0     0.465905     0.831449     0.800832  Biso 1.000000    Cd
   Cd   1.0     0.965916     0.831454     0.800834  Biso 1.000000    Cd
   Cd   1.0     0.033959     0.669168     0.301365  Biso 1.000000    Cd
   Cd   1.0     0.533954     0.669171     0.301368  Biso 1.000000    Cd
   Cd   1.0     0.034087     0.168526     0.199184  Biso 1.000000    Cd
   Cd   1.0     0.534094     0.168521     0.199187  Biso 1.000000    Cd
   Cd   1.0     0.466011     0.330815     0.698644  Biso 1.000000    Cd
   Cd   1.0     0.966041     0.330821     0.698650  Biso 1.000000    Cd
