#======================================================================

# CRYSTAL DATA

#----------------------------------------------------------------------

data_VESTA_phase_1


_pd_phase_name                         MOF
_cell_length_a                         12.91000
_cell_length_b                         18.10000
_cell_length_c                         26.52300
_cell_angle_alpha                      90.00100
_cell_angle_beta                       89.99400
_cell_angle_gamma                      90.06300
_symmetry_space_group_name_H-M         "P 1"
_symmetry_Int_Tables_number            1

loop_
_symmetry_equiv_pos_as_xyz
   "x, y, z"

loop_
   _atom_site_label
   _atom_site_occupancy
   _atom_site_fract_x
   _atom_site_fract_y
   _atom_site_fract_z
   _atom_site_adp_type
   _atom_site_B_iso_or_equiv
   _atom_site_type_symbol
    H   1.0     0.385848     0.420082     0.630872  Biso 1.000000     H
    H   1.0     0.385805     0.920102     0.630819  Biso 1.000000     H
    H   1.0     0.884037     0.421057     0.630770  Biso 1.000000     H
    H   1.0     0.884036     0.921056     0.630770  Biso 1.000000     H
    H   1.0     0.378370     0.417385     0.537958  Biso 1.000000     H
    H   1.0     0.378426     0.917469     0.537895  Biso 1.000000     H
    H   1.0     0.876936     0.418399     0.537857  Biso 1.000000     H
    H   1.0     0.876932     0.918404     0.537856  Biso 1.000000     H
    H   1.0     0.134441     0.079004     0.869260  Biso 1.000000     H
    H   1.0     0.134432     0.578990     0.869236  Biso 1.000000     H
    H   1.0     0.634393     0.078967     0.869263  Biso 1.000000     H
    H   1.0     0.634402     0.578966     0.869279  Biso 1.000000     H
    H   1.0     0.127398     0.081714     0.962168  Biso 1.000000     H
    H   1.0     0.127383     0.581704     0.962144  Biso 1.000000     H
    H   1.0     0.627114     0.081533     0.962184  Biso 1.000000     H
    H   1.0     0.627106     0.581528     0.962198  Biso 1.000000     H
    H   1.0     0.365652     0.420964     0.869216  Biso 1.000000     H
    H   1.0     0.365619     0.920947     0.869232  Biso 1.000000     H
    H   1.0     0.865761     0.421032     0.869327  Biso 1.000000     H
    H   1.0     0.865749     0.921031     0.869302  Biso 1.000000     H
    H   1.0     0.372826     0.418373     0.962139  Biso 1.000000     H
    H   1.0     0.372796     0.918350     0.962155  Biso 1.000000     H
    H   1.0     0.872681     0.418302     0.962236  Biso 1.000000     H
    H   1.0     0.872688     0.918303     0.962210  Biso 1.000000     H
    H   1.0     0.115976     0.078943     0.630761  Biso 1.000000     H
    H   1.0     0.115967     0.578938     0.630759  Biso 1.000000     H
    H   1.0     0.615154     0.079865     0.630689  Biso 1.000000     H
    H   1.0     0.615184     0.579841     0.630636  Biso 1.000000     H
    H   1.0     0.123069     0.081601     0.537846  Biso 1.000000     H
    H   1.0     0.123062     0.581591     0.537844  Biso 1.000000     H
    H   1.0     0.621890     0.082691     0.537780  Biso 1.000000     H
    H   1.0     0.621820     0.582604     0.537716  Biso 1.000000     H
    H   1.0     0.115969     0.078942     0.369246  Biso 1.000000     H
    H   1.0     0.115950     0.578929     0.369243  Biso 1.000000     H
    H   1.0     0.614930     0.079933     0.369290  Biso 1.000000     H
    H   1.0     0.614096     0.579877     0.369149  Biso 1.000000     H
    H   1.0     0.123065     0.081600     0.462160  Biso 1.000000     H
    H   1.0     0.123057     0.581586     0.462157  Biso 1.000000     H
    H   1.0     0.621785     0.082738     0.462196  Biso 1.000000     H
    H   1.0     0.621561     0.582568     0.462061  Biso 1.000000     H
    H   1.0     0.365554     0.420987     0.130738  Biso 1.000000     H
    H   1.0     0.365625     0.920989     0.130750  Biso 1.000000     H
    H   1.0     0.865582     0.421005     0.130777  Biso 1.000000     H
    H   1.0     0.865674     0.921008     0.130736  Biso 1.000000     H
    H   1.0     0.372848     0.418421     0.037817  Biso 1.000000     H
    H   1.0     0.372844     0.918399     0.037829  Biso 1.000000     H
    H   1.0     0.872607     0.418273     0.037869  Biso 1.000000     H
    H   1.0     0.872633     0.918267     0.037827  Biso 1.000000     H
    H   1.0     0.134342     0.078972     0.130728  Biso 1.000000     H
    H   1.0     0.134246     0.578958     0.130688  Biso 1.000000     H
    H   1.0     0.634416     0.079015     0.130785  Biso 1.000000     H
    H   1.0     0.634319     0.578999     0.130796  Biso 1.000000     H
    H   1.0     0.127338     0.081677     0.037820  Biso 1.000000     H
    H   1.0     0.127317     0.581681     0.037779  Biso 1.000000     H
    H   1.0     0.627162     0.081579     0.037863  Biso 1.000000     H
    H   1.0     0.627129     0.581577     0.037874  Biso 1.000000     H
    H   1.0     0.384746     0.420128     0.369371  Biso 1.000000     H
    H   1.0     0.385593     0.920161     0.369230  Biso 1.000000     H
    H   1.0     0.884019     0.421049     0.369259  Biso 1.000000     H
    H   1.0     0.884029     0.921055     0.369257  Biso 1.000000     H
    H   1.0     0.378094     0.417362     0.462292  Biso 1.000000     H
    H   1.0     0.378333     0.917506     0.462157  Biso 1.000000     H
    H   1.0     0.876931     0.418395     0.462173  Biso 1.000000     H
    H   1.0     0.876929     0.918403     0.462172  Biso 1.000000     H
    C   1.0     0.377182     0.246980     0.794828  Biso 1.000000     C
    C   1.0     0.377177     0.746976     0.794828  Biso 1.000000     C
    C   1.0     0.876010     0.247055     0.794875  Biso 1.000000     C
    C   1.0     0.876012     0.747052     0.794874  Biso 1.000000     C
    C   1.0     0.379845     0.170338     0.794865  Biso 1.000000     C
    C   1.0     0.379844     0.670334     0.794865  Biso 1.000000     C
    C   1.0     0.878885     0.170427     0.794901  Biso 1.000000     C
    C   1.0     0.878879     0.670423     0.794901  Biso 1.000000     C
    C   1.0     0.435731     0.455755     0.608431  Biso 1.000000     C
    C   1.0     0.435708     0.955792     0.608400  Biso 1.000000     C
    C   1.0     0.934592     0.456322     0.608382  Biso 1.000000     C
    C   1.0     0.934590     0.956322     0.608382  Biso 1.000000     C
    C   1.0     0.433110     0.454586     0.556095  Biso 1.000000     C
    C   1.0     0.433141     0.954660     0.556061  Biso 1.000000     C
    C   1.0     0.932196     0.455156     0.556042  Biso 1.000000     C
    C   1.0     0.932193     0.955159     0.556042  Biso 1.000000     C
    C   1.0     0.127152     0.252932     0.705206  Biso 1.000000     C
    C   1.0     0.127148     0.752929     0.705205  Biso 1.000000     C
    C   1.0     0.626585     0.252973     0.705209  Biso 1.000000     C
    C   1.0     0.626577     0.752969     0.705209  Biso 1.000000     C
    C   1.0     0.128418     0.329579     0.705142  Biso 1.000000     C
    C   1.0     0.128415     0.829576     0.705142  Biso 1.000000     C
    C   1.0     0.629326     0.329608     0.705163  Biso 1.000000     C
    C   1.0     0.629320     0.829605     0.705163  Biso 1.000000     C
    C   1.0     0.184849     0.043705     0.891639  Biso 1.000000     C
    C   1.0     0.184846     0.543699     0.891617  Biso 1.000000     C
    C   1.0     0.684787     0.043678     0.891657  Biso 1.000000     C
    C   1.0     0.684792     0.543675     0.891674  Biso 1.000000     C
    C   1.0     0.182474     0.044903     0.943978  Biso 1.000000     C
    C   1.0     0.182469     0.544899     0.943955  Biso 1.000000     C
    C   1.0     0.682290     0.044795     0.943997  Biso 1.000000     C
    C   1.0     0.682284     0.544790     0.944014  Biso 1.000000     C
    C   1.0     0.373601     0.246985     0.705198  Biso 1.000000     C
    C   1.0     0.373596     0.746982     0.705198  Biso 1.000000     C
    C   1.0     0.872910     0.247060     0.705214  Biso 1.000000     C
    C   1.0     0.872913     0.747055     0.705214  Biso 1.000000     C
    C   1.0     0.370975     0.170338     0.705152  Biso 1.000000     C
    C   1.0     0.370975     0.670334     0.705152  Biso 1.000000     C
    C   1.0     0.871619     0.170413     0.705146  Biso 1.000000     C
    C   1.0     0.871613     0.670408     0.705145  Biso 1.000000     C
    C   1.0     0.315268     0.456273     0.891607  Biso 1.000000     C
    C   1.0     0.315242     0.956260     0.891624  Biso 1.000000     C
    C   1.0     0.815288     0.456299     0.891700  Biso 1.000000     C
    C   1.0     0.815280     0.956296     0.891678  Biso 1.000000     C
    C   1.0     0.317706     0.455143     0.943949  Biso 1.000000     C
    C   1.0     0.317681     0.955126     0.943966  Biso 1.000000     C
    C   1.0     0.817591     0.455087     0.944038  Biso 1.000000     C
    C   1.0     0.817593     0.955086     0.944015  Biso 1.000000     C
    C   1.0     0.124055     0.252936     0.794863  Biso 1.000000     C
    C   1.0     0.124051     0.752932     0.794862  Biso 1.000000     C
    C   1.0     0.622995     0.252995     0.794862  Biso 1.000000     C
    C   1.0     0.622987     0.752991     0.794863  Biso 1.000000     C
    C   1.0     0.121152     0.329565     0.794896  Biso 1.000000     C
    C   1.0     0.121149     0.829560     0.794896  Biso 1.000000     C
    C   1.0     0.620446     0.329630     0.794895  Biso 1.000000     C
    C   1.0     0.620440     0.829627     0.794895  Biso 1.000000     C
    C   1.0     0.065414     0.043681     0.608377  Biso 1.000000     C
    C   1.0     0.065406     0.543674     0.608376  Biso 1.000000     C
    C   1.0     0.565092     0.044211     0.608332  Biso 1.000000     C
    C   1.0     0.565105     0.544167     0.608301  Biso 1.000000     C
    C   1.0     0.067807     0.044847     0.556036  Biso 1.000000     C
    C   1.0     0.067801     0.544837     0.556035  Biso 1.000000     C
    C   1.0     0.567296     0.045462     0.555996  Biso 1.000000     C
    C   1.0     0.567254     0.545383     0.555961  Biso 1.000000     C
    C   1.0     0.124018     0.252931     0.205145  Biso 1.000000     C
    C   1.0     0.123998     0.752937     0.205140  Biso 1.000000     C
    C   1.0     0.622879     0.253043     0.205163  Biso 1.000000     C
    C   1.0     0.622886     0.752962     0.205181  Biso 1.000000     C
    C   1.0     0.121120     0.329559     0.205116  Biso 1.000000     C
    C   1.0     0.121123     0.829566     0.205113  Biso 1.000000     C
    C   1.0     0.620171     0.329677     0.205136  Biso 1.000000     C
    C   1.0     0.620379     0.829605     0.205139  Biso 1.000000     C
    C   1.0     0.065407     0.043681     0.391634  Biso 1.000000     C
    C   1.0     0.065396     0.543664     0.391632  Biso 1.000000     C
    C   1.0     0.564914     0.044263     0.391663  Biso 1.000000     C
    C   1.0     0.564202     0.544207     0.391586  Biso 1.000000     C
    C   1.0     0.067802     0.044846     0.443974  Biso 1.000000     C
    C   1.0     0.067795     0.544830     0.443972  Biso 1.000000     C
    C   1.0     0.567182     0.045502     0.443998  Biso 1.000000     C
    C   1.0     0.566816     0.545373     0.443922  Biso 1.000000     C
    C   1.0     0.373496     0.246966     0.294801  Biso 1.000000     C
    C   1.0     0.373477     0.747039     0.294818  Biso 1.000000     C
    C   1.0     0.872851     0.247062     0.294812  Biso 1.000000     C
    C   1.0     0.872865     0.747052     0.294806  Biso 1.000000     C
    C   1.0     0.370897     0.170323     0.294852  Biso 1.000000     C
    C   1.0     0.370686     0.670400     0.294859  Biso 1.000000     C
    C   1.0     0.871591     0.170415     0.294875  Biso 1.000000     C
    C   1.0     0.871584     0.670405     0.294871  Biso 1.000000     C
    C   1.0     0.315176     0.456286     0.108342  Biso 1.000000     C
    C   1.0     0.315231     0.956286     0.108361  Biso 1.000000     C
    C   1.0     0.815155     0.456287     0.108396  Biso 1.000000     C
    C   1.0     0.815234     0.956287     0.108360  Biso 1.000000     C
    C   1.0     0.317681     0.455169     0.056001  Biso 1.000000     C
    C   1.0     0.317695     0.955154     0.056019  Biso 1.000000     C
    C   1.0     0.817517     0.455074     0.056058  Biso 1.000000     C
    C   1.0     0.817557     0.955071     0.056024  Biso 1.000000     C
    C   1.0     0.127115     0.252929     0.294804  Biso 1.000000     C
    C   1.0     0.127097     0.752931     0.294799  Biso 1.000000     C
    C   1.0     0.626456     0.253030     0.294804  Biso 1.000000     C
    C   1.0     0.626478     0.752950     0.294823  Biso 1.000000     C
    C   1.0     0.128386     0.329576     0.294871  Biso 1.000000     C
    C   1.0     0.128387     0.829577     0.294867  Biso 1.000000     C
    C   1.0     0.629038     0.329674     0.294855  Biso 1.000000     C
    C   1.0     0.629260     0.829589     0.294864  Biso 1.000000     C
    C   1.0     0.184785     0.043690     0.108351  Biso 1.000000     C
    C   1.0     0.184706     0.543682     0.108315  Biso 1.000000     C
    C   1.0     0.684792     0.043709     0.108387  Biso 1.000000     C
    C   1.0     0.684712     0.543696     0.108406  Biso 1.000000     C
    C   1.0     0.182432     0.044887     0.056011  Biso 1.000000     C
    C   1.0     0.182399     0.544890     0.055977  Biso 1.000000     C
    C   1.0     0.682307     0.044822     0.056047  Biso 1.000000     C
    C   1.0     0.682260     0.544817     0.056064  Biso 1.000000     C
    C   1.0     0.377076     0.246950     0.205160  Biso 1.000000     C
    C   1.0     0.377072     0.747025     0.205175  Biso 1.000000     C
    C   1.0     0.875949     0.247061     0.205152  Biso 1.000000     C
    C   1.0     0.875964     0.747046     0.205148  Biso 1.000000     C
    C   1.0     0.379766     0.170316     0.205132  Biso 1.000000     C
    C   1.0     0.379569     0.670382     0.205133  Biso 1.000000     C
    C   1.0     0.878859     0.170433     0.205120  Biso 1.000000     C
    C   1.0     0.878850     0.670417     0.205117  Biso 1.000000     C
    C   1.0     0.434821     0.455800     0.391709  Biso 1.000000     C
    C   1.0     0.435537     0.955840     0.391632  Biso 1.000000     C
    C   1.0     0.934582     0.456312     0.391641  Biso 1.000000     C
    C   1.0     0.934584     0.956321     0.391641  Biso 1.000000     C
    C   1.0     0.432665     0.454582     0.444050  Biso 1.000000     C
    C   1.0     0.433034     0.954694     0.443973  Biso 1.000000     C
    C   1.0     0.932191     0.455149     0.443982  Biso 1.000000     C
    C   1.0     0.932188     0.955158     0.443981  Biso 1.000000     C
    C   1.0     0.000003     0.000009     0.528019  Biso 1.000000     C
    C   1.0    -0.000002     0.499996     0.528018  Biso 1.000000     C
    C   1.0     0.500151     0.000079     0.528014  Biso 1.000000     C
    C   1.0     0.500087     0.499969     0.528013  Biso 1.000000     C
    C   1.0     0.250097     0.000029     0.971990  Biso 1.000000     C
    C   1.0     0.250107     0.500038     0.971968  Biso 1.000000     C
    C   1.0     0.749904    -0.000072     0.972020  Biso 1.000000     C
    C   1.0     0.749891     0.499922     0.972043  Biso 1.000000     C
    C   1.0     0.000004     0.000006     0.471998  Biso 1.000000     C
    C   1.0    -0.000001     0.499989     0.471997  Biso 1.000000     C
    C   1.0     0.500088     0.000102     0.472000  Biso 1.000000     C
    C   1.0     0.499832     0.499991     0.472000  Biso 1.000000     C
    C   1.0     0.250088     0.000031     0.027996  Biso 1.000000     C
    C   1.0     0.250069     0.500031     0.027972  Biso 1.000000     C
    C   1.0     0.749916    -0.000055     0.028022  Biso 1.000000     C
    C   1.0     0.749886     0.499941     0.028046  Biso 1.000000     C
    C   1.0     0.375279     0.370951     0.750004  Biso 1.000000     C
    C   1.0     0.375270     0.870948     0.750004  Biso 1.000000     C
    C   1.0     0.874192     0.370958     0.750028  Biso 1.000000     C
    C   1.0     0.874200     0.870953     0.750027  Biso 1.000000     C
    C   1.0     0.375294     0.288377     0.750014  Biso 1.000000     C
    C   1.0     0.375287     0.788373     0.750014  Biso 1.000000     C
    C   1.0     0.874356     0.288421     0.750047  Biso 1.000000     C
    C   1.0     0.874351     0.788416     0.750046  Biso 1.000000     C
    C   1.0     0.375368     0.128755     0.750005  Biso 1.000000     C
    C   1.0     0.375372     0.628751     0.750005  Biso 1.000000     C
    C   1.0     0.875527     0.128916     0.750022  Biso 1.000000     C
    C   1.0     0.875522     0.628911     0.750022  Biso 1.000000     C
    C   1.0     0.125969     0.129029     0.750001  Biso 1.000000     C
    C   1.0     0.125962     0.629026     0.749998  Biso 1.000000     C
    C   1.0     0.625030     0.129084     0.750032  Biso 1.000000     C
    C   1.0     0.625025     0.629080     0.750033  Biso 1.000000     C
    C   1.0     0.125738     0.211569     0.750035  Biso 1.000000     C
    C   1.0     0.125732     0.711566     0.750034  Biso 1.000000     C
    C   1.0     0.624952     0.211620     0.750043  Biso 1.000000     C
    C   1.0     0.624952     0.711616     0.750043  Biso 1.000000     C
    C   1.0     0.124513     0.371084     0.750019  Biso 1.000000     C
    C   1.0     0.124510     0.871080     0.750019  Biso 1.000000     C
    C   1.0     0.625210     0.371142     0.750027  Biso 1.000000     C
    C   1.0     0.625199     0.871138     0.750027  Biso 1.000000     C
    C   1.0     0.125930     0.129028     0.250005  Biso 1.000000     C
    C   1.0     0.125804     0.629031     0.249986  Biso 1.000000     C
    C   1.0     0.624971     0.129124     0.249987  Biso 1.000000     C
    C   1.0     0.624717     0.628999     0.250009  Biso 1.000000     C
    C   1.0     0.125693     0.211568     0.249973  Biso 1.000000     C
    C   1.0     0.125651     0.711568     0.249967  Biso 1.000000     C
    C   1.0     0.624849     0.211657     0.249977  Biso 1.000000     C
    C   1.0     0.624756     0.711576     0.250000  Biso 1.000000     C
    C   1.0     0.124473     0.371072     0.249994  Biso 1.000000     C
    C   1.0     0.124485     0.871083     0.249992  Biso 1.000000     C
    C   1.0     0.624633     0.371257     0.250001  Biso 1.000000     C
    C   1.0     0.625139     0.871123     0.250002  Biso 1.000000     C
    C   1.0     0.374970     0.370870     0.249983  Biso 1.000000     C
    C   1.0     0.375234     0.870988     0.250001  Biso 1.000000     C
    C   1.0     0.874022     0.370963     0.250020  Biso 1.000000     C
    C   1.0     0.874142     0.870951     0.250001  Biso 1.000000     C
    C   1.0     0.375089     0.288337     0.249973  Biso 1.000000     C
    C   1.0     0.375185     0.788411     0.249995  Biso 1.000000     C
    C   1.0     0.874277     0.288423     0.249982  Biso 1.000000     C
    C   1.0     0.874318     0.788415     0.249976  Biso 1.000000     C
    C   1.0     0.375269     0.128740     0.249997  Biso 1.000000     C
    C   1.0     0.374795     0.628867     0.249996  Biso 1.000000     C
    C   1.0     0.875501     0.128920     0.249997  Biso 1.000000     C
    C   1.0     0.875484     0.628898     0.249994  Biso 1.000000     C
    N   1.0     0.000010     0.000004     0.634592  Biso 1.000000     N
    N   1.0     0.000002     0.499998     0.634592  Biso 1.000000     N
    N   1.0     0.500511    -0.000032     0.634580  Biso 1.000000     N
    N   1.0     0.500530     0.499957     0.634580  Biso 1.000000     N
    N   1.0     0.249993    -0.000053     0.865419  Biso 1.000000     N
    N   1.0     0.249995     0.499940     0.865401  Biso 1.000000     N
    N   1.0     0.750132     0.000045     0.865458  Biso 1.000000     N
    N   1.0     0.750137     0.500040     0.865476  Biso 1.000000     N
    N   1.0    -0.000001     0.000006     0.365424  Biso 1.000000     N
    N   1.0    -0.000014     0.499989     0.365424  Biso 1.000000     N
    N   1.0     0.500335     0.000003     0.365434  Biso 1.000000     N
    N   1.0     0.499401     0.500012     0.365434  Biso 1.000000     N
    N   1.0     0.249953    -0.000043     0.134570  Biso 1.000000     N
    N   1.0     0.249865     0.499948     0.134540  Biso 1.000000     N
    N   1.0     0.750090     0.000045     0.134582  Biso 1.000000     N
    N   1.0     0.749978     0.500023     0.134611  Biso 1.000000     N
    O   1.0     0.417921     0.403327     0.712801  Biso 1.000000     O
    O   1.0     0.417903     0.903322     0.712797  Biso 1.000000     O
    O   1.0     0.916302     0.403423     0.712729  Biso 1.000000     O
    O   1.0     0.916297     0.903419     0.712726  Biso 1.000000     O
    O   1.0     0.168281     0.096749     0.787310  Biso 1.000000     O
    O   1.0     0.168280     0.596745     0.787306  Biso 1.000000     O
    O   1.0     0.667369     0.096647     0.787253  Biso 1.000000     O
    O   1.0     0.667364     0.596642     0.787255  Biso 1.000000     O
    O   1.0     0.332602     0.403313     0.787181  Biso 1.000000     O
    O   1.0     0.332602     0.903311     0.787183  Biso 1.000000     O
    O   1.0     0.832036     0.403241     0.787381  Biso 1.000000     O
    O   1.0     0.832023     0.903236     0.787375  Biso 1.000000     O
    O   1.0     0.083691     0.096571     0.712748  Biso 1.000000     O
    O   1.0     0.083683     0.596568     0.712746  Biso 1.000000     O
    O   1.0     0.582661     0.096771     0.712724  Biso 1.000000     O
    O   1.0     0.582674     0.596767     0.712720  Biso 1.000000     O
    O   1.0     0.083679     0.096569     0.287267  Biso 1.000000     O
    O   1.0     0.083675     0.596568     0.287282  Biso 1.000000     O
    O   1.0     0.582587     0.096791     0.287293  Biso 1.000000     O
    O   1.0     0.582069     0.596638     0.287211  Biso 1.000000     O
    O   1.0     0.332617     0.403323     0.212768  Biso 1.000000     O
    O   1.0     0.332601     0.903337     0.212816  Biso 1.000000     O
    O   1.0     0.831716     0.403239     0.212707  Biso 1.000000     O
    O   1.0     0.832005     0.903240     0.212650  Biso 1.000000     O
    O   1.0     0.168236     0.096752     0.212688  Biso 1.000000     O
    O   1.0     0.167956     0.596742     0.212634  Biso 1.000000     O
    O   1.0     0.667371     0.096673     0.212780  Biso 1.000000     O
    O   1.0     0.667383     0.596652     0.212827  Biso 1.000000     O
    O   1.0     0.417318     0.403198     0.287296  Biso 1.000000     O
    O   1.0     0.417850     0.903343     0.287212  Biso 1.000000     O
    O   1.0     0.916296     0.403422     0.287272  Biso 1.000000     O
    O   1.0     0.916301     0.903414     0.287285  Biso 1.000000     O
    O   1.0     0.375302     0.054901     0.749994  Biso 1.000000     O
    O   1.0     0.375314     0.554897     0.749994  Biso 1.000000     O
    O   1.0     0.875630     0.055038     0.750046  Biso 1.000000     O
    O   1.0     0.875624     0.555033     0.750047  Biso 1.000000     O
    O   1.0     0.124376     0.444961     0.750047  Biso 1.000000     O
    O   1.0     0.124373     0.944957     0.750048  Biso 1.000000     O
    O   1.0     0.625653     0.445009     0.750002  Biso 1.000000     O
    O   1.0     0.625639     0.945006     0.750000  Biso 1.000000     O
    O   1.0     0.124353     0.444951     0.249967  Biso 1.000000     O
    O   1.0     0.124372     0.944959     0.249966  Biso 1.000000     O
    O   1.0     0.624669     0.445107     0.250015  Biso 1.000000     O
    O   1.0     0.625593     0.944994     0.250028  Biso 1.000000     O
    O   1.0     0.375194     0.054889     0.250015  Biso 1.000000     O
    O   1.0     0.374326     0.554996     0.250019  Biso 1.000000     O
    O   1.0     0.875630     0.055040     0.249969  Biso 1.000000     O
    O   1.0     0.875604     0.555023     0.249967  Biso 1.000000     O
    F   1.0     0.382234     0.281213     0.840083  Biso 1.000000     F
    F   1.0     0.382230     0.781209     0.840083  Biso 1.000000     F
    F   1.0     0.880073     0.281214     0.840169  Biso 1.000000     F
    F   1.0     0.880068     0.781211     0.840169  Biso 1.000000     F
    F   1.0     0.386616     0.134264     0.839530  Biso 1.000000     F
    F   1.0     0.386612     0.634261     0.839530  Biso 1.000000     F
    F   1.0     0.884465     0.134278     0.839565  Biso 1.000000     F
    F   1.0     0.884460     0.634275     0.839565  Biso 1.000000     F
    F   1.0     0.133212     0.218757     0.659969  Biso 1.000000     F
    F   1.0     0.133208     0.718754     0.659968  Biso 1.000000     F
    F   1.0     0.631169     0.218774     0.659939  Biso 1.000000     F
    F   1.0     0.631165     0.718770     0.659939  Biso 1.000000     F
    F   1.0     0.133412     0.365719     0.660459  Biso 1.000000     F
    F   1.0     0.133408     0.865716     0.660458  Biso 1.000000     F
    F   1.0     0.635561     0.365712     0.660492  Biso 1.000000     F
    F   1.0     0.635556     0.865708     0.660492  Biso 1.000000     F
    F   1.0     0.368818     0.281206     0.659931  Biso 1.000000     F
    F   1.0     0.368814     0.781202     0.659930  Biso 1.000000     F
    F   1.0     0.866775     0.281232     0.659981  Biso 1.000000     F
    F   1.0     0.866771     0.781227     0.659981  Biso 1.000000     F
    F   1.0     0.364456     0.134263     0.660477  Biso 1.000000     F
    F   1.0     0.364453     0.634259     0.660477  Biso 1.000000     F
    F   1.0     0.866568     0.134271     0.660464  Biso 1.000000     F
    F   1.0     0.866563     0.634266     0.660463  Biso 1.000000     F
    F   1.0     0.119913     0.218764     0.840152  Biso 1.000000     F
    F   1.0     0.119909     0.718759     0.840151  Biso 1.000000     F
    F   1.0     0.617749     0.218768     0.840106  Biso 1.000000     F
    F   1.0     0.617745     0.718765     0.840107  Biso 1.000000     F
    F   1.0     0.115512     0.365704     0.839564  Biso 1.000000     F
    F   1.0     0.115508     0.865699     0.839564  Biso 1.000000     F
    F   1.0     0.613393     0.365729     0.839534  Biso 1.000000     F
    F   1.0     0.613388     0.865725     0.839534  Biso 1.000000     F
    F   1.0     0.119916     0.218767     0.159853  Biso 1.000000     F
    F   1.0     0.119908     0.718773     0.159847  Biso 1.000000     F
    F   1.0     0.617762     0.218789     0.159919  Biso 1.000000     F
    F   1.0     0.617738     0.718754     0.159926  Biso 1.000000     F
    F   1.0     0.115517     0.365708     0.160451  Biso 1.000000     F
    F   1.0     0.115516     0.865707     0.160448  Biso 1.000000     F
    F   1.0     0.613365     0.365740     0.160473  Biso 1.000000     F
    F   1.0     0.613394     0.865712     0.160495  Biso 1.000000     F
    F   1.0     0.368806     0.281194     0.340066  Biso 1.000000     F
    F   1.0     0.368823     0.781228     0.340093  Biso 1.000000     F
    F   1.0     0.866773     0.281233     0.340048  Biso 1.000000     F
    F   1.0     0.866771     0.781227     0.340042  Biso 1.000000     F
    F   1.0     0.364454     0.134262     0.339533  Biso 1.000000     F
    F   1.0     0.364416     0.634280     0.339525  Biso 1.000000     F
    F   1.0     0.866572     0.134270     0.339555  Biso 1.000000     F
    F   1.0     0.866567     0.634266     0.339554  Biso 1.000000     F
    F   1.0     0.133212     0.218757     0.340039  Biso 1.000000     F
    F   1.0     0.133206     0.718756     0.340033  Biso 1.000000     F
    F   1.0     0.631178     0.218799     0.340066  Biso 1.000000     F
    F   1.0     0.631154     0.718758     0.340096  Biso 1.000000     F
    F   1.0     0.133414     0.365720     0.339553  Biso 1.000000     F
    F   1.0     0.133412     0.865716     0.339551  Biso 1.000000     F
    F   1.0     0.635525     0.365733     0.339534  Biso 1.000000     F
    F   1.0     0.635556     0.865707     0.339529  Biso 1.000000     F
    F   1.0     0.382226     0.281202     0.159916  Biso 1.000000     F
    F   1.0     0.382242     0.781231     0.159921  Biso 1.000000     F
    F   1.0     0.880072     0.281228     0.159863  Biso 1.000000     F
    F   1.0     0.880072     0.781213     0.159856  Biso 1.000000     F
    F   1.0     0.386620     0.134251     0.160471  Biso 1.000000     F
    F   1.0     0.386584     0.634272     0.160491  Biso 1.000000     F
    F   1.0     0.884473     0.134287     0.160452  Biso 1.000000     F
    F   1.0     0.884466     0.634279     0.160448  Biso 1.000000     F
   Zn   1.0     0.000031    -0.000013     0.714230  Biso 1.000000    Zn
   Zn   1.0     0.000025     0.499983     0.714230  Biso 1.000000    Zn
   Zn   1.0     0.501068    -0.000066     0.714318  Biso 1.000000    Zn
   Zn   1.0     0.501091     0.499934     0.714317  Biso 1.000000    Zn
   Zn   1.0     0.249651    -0.000092     0.785685  Biso 1.000000    Zn
   Zn   1.0     0.249652     0.499905     0.785676  Biso 1.000000    Zn
   Zn   1.0     0.750669     0.000114     0.785772  Biso 1.000000    Zn
   Zn   1.0     0.750668     0.500110     0.785782  Biso 1.000000    Zn
   Zn   1.0     0.000011    -0.000010     0.285785  Biso 1.000000    Zn
   Zn   1.0    -0.000026     0.500003     0.285785  Biso 1.000000    Zn
   Zn   1.0     0.501028    -0.000050     0.285695  Biso 1.000000    Zn
   Zn   1.0     0.498822     0.500043     0.285696  Biso 1.000000    Zn
   Zn   1.0     0.249612    -0.000083     0.214311  Biso 1.000000    Zn
   Zn   1.0     0.249326     0.499870     0.214235  Biso 1.000000    Zn
   Zn   1.0     0.750647     0.000121     0.214261  Biso 1.000000    Zn
   Zn   1.0     0.750344     0.500074     0.214335  Biso 1.000000    Zn
