#======================================================================

# CRYSTAL DATA

#----------------------------------------------------------------------

data_VESTA_phase_1


_pd_phase_name                         MOF
_cell_length_a                         12.46500
_cell_length_b                         15.96800
_cell_length_c                         15.97200
_cell_angle_alpha                      90.00200
_cell_angle_beta                       89.97700
_cell_angle_gamma                      90.00700
_symmetry_space_group_name_H-M         "P 1"
_symmetry_Int_Tables_number            1

loop_
_symmetry_equiv_pos_as_xyz
   "x, y, z"

loop_
   _atom_site_label
   _atom_site_occupancy
   _atom_site_fract_x
   _atom_site_fract_y
   _atom_site_fract_z
   _atom_site_adp_type
   _atom_site_B_iso_or_equiv
   _atom_site_type_symbol
    H   1.0     0.245202     0.595591     0.823332  Biso 1.000000     H
    H   1.0     0.240415     0.624187     0.929501  Biso 1.000000     H
    H   1.0     0.761328     0.709670     0.717351  Biso 1.000000     H
    H   1.0     0.753478     0.642028     0.945027  Biso 1.000000     H
    H   1.0     0.760950     0.600932     0.844683  Biso 1.000000     H
    H   1.0     0.130872     0.720426     0.838768  Biso 1.000000     H
    H   1.0     0.233362     0.775146     0.892388  Biso 1.000000     H
    H   1.0     0.866631     0.730097     0.847211  Biso 1.000000     H
    H   1.0     0.759974     0.788145     0.892044  Biso 1.000000     H
    H   1.0     0.745241     0.404399     0.176723  Biso 1.000000     H
    H   1.0     0.740543     0.375789     0.070558  Biso 1.000000     H
    H   1.0     0.261309     0.290382     0.282572  Biso 1.000000     H
    H   1.0     0.253573     0.358031     0.054906  Biso 1.000000     H
    H   1.0     0.260978     0.399122     0.155247  Biso 1.000000     H
    H   1.0     0.630930     0.279539     0.161348  Biso 1.000000     H
    H   1.0     0.733433     0.224844     0.107679  Biso 1.000000     H
    H   1.0     0.366656     0.269972     0.152669  Biso 1.000000     H
    H   1.0     0.260001     0.211904     0.107890  Biso 1.000000     H
    H   1.0     0.495255     0.676750     0.095605  Biso 1.000000     H
    H   1.0     0.490495     0.570552     0.124182  Biso 1.000000     H
    H   1.0     0.011337     0.782608     0.209642  Biso 1.000000     H
    H   1.0     0.003496     0.554876     0.142007  Biso 1.000000     H
    H   1.0     0.010999     0.655237     0.100922  Biso 1.000000     H
    H   1.0     0.380897     0.661322     0.220432  Biso 1.000000     H
    H   1.0     0.483357     0.607648     0.275102  Biso 1.000000     H
    H   1.0     0.116609     0.652685     0.230039  Biso 1.000000     H
    H   1.0     0.009910     0.607884     0.288089  Biso 1.000000     H
    H   1.0     0.995158     0.323368     0.904369  Biso 1.000000     H
    H   1.0     0.990478     0.429557     0.875768  Biso 1.000000     H
    H   1.0     0.511272     0.217366     0.790335  Biso 1.000000     H
    H   1.0     0.503496     0.445092     0.857980  Biso 1.000000     H
    H   1.0     0.510930     0.344724     0.899053  Biso 1.000000     H
    H   1.0     0.880908     0.338770     0.779558  Biso 1.000000     H
    H   1.0     0.983445     0.392415     0.724854  Biso 1.000000     H
    H   1.0     0.616633     0.347283     0.769906  Biso 1.000000     H
    H   1.0     0.509999     0.392106     0.711893  Biso 1.000000     H
    H   1.0     0.004815     0.904417     0.323299  Biso 1.000000     H
    H   1.0     0.009503     0.875812     0.429464  Biso 1.000000     H
    H   1.0     0.488751     0.790411     0.217396  Biso 1.000000     H
    H   1.0     0.496467     0.858052     0.445068  Biso 1.000000     H
    H   1.0     0.489069     0.899138     0.344724  Biso 1.000000     H
    H   1.0     0.119104     0.779565     0.338685  Biso 1.000000     H
    H   1.0     0.016577     0.724860     0.392338  Biso 1.000000     H
    H   1.0     0.383375     0.769977     0.347292  Biso 1.000000     H
    H   1.0     0.490010     0.711927     0.392081  Biso 1.000000     H
    H   1.0     0.504786     0.095569     0.676694  Biso 1.000000     H
    H   1.0     0.509597     0.124148     0.570523  Biso 1.000000     H
    H   1.0     0.988695     0.209676     0.782599  Biso 1.000000     H
    H   1.0     0.996575     0.142009     0.554927  Biso 1.000000     H
    H   1.0     0.989085     0.100918     0.655267  Biso 1.000000     H
    H   1.0     0.619152     0.220402     0.661266  Biso 1.000000     H
    H   1.0     0.516691     0.275108     0.607624  Biso 1.000000     H
    H   1.0     0.883430     0.230074     0.652731  Biso 1.000000     H
    H   1.0     0.990106     0.288134     0.607913  Biso 1.000000     H
    H   1.0     0.754875     0.823329     0.595579  Biso 1.000000     H
    H   1.0     0.759613     0.929527     0.624155  Biso 1.000000     H
    H   1.0     0.238727     0.717380     0.709691  Biso 1.000000     H
    H   1.0     0.246567     0.945110     0.642051  Biso 1.000000     H
    H   1.0     0.239093     0.844745     0.600960  Biso 1.000000     H
    H   1.0     0.869162     0.838769     0.720368  Biso 1.000000     H
    H   1.0     0.766655     0.892428     0.775072  Biso 1.000000     H
    H   1.0     0.133402     0.847288     0.730114  Biso 1.000000     H
    H   1.0     0.240052     0.892118     0.788130  Biso 1.000000     H
    H   1.0     0.254792     0.176691     0.404351  Biso 1.000000     H
    H   1.0     0.259506     0.070502     0.375745  Biso 1.000000     H
    H   1.0     0.738715     0.282607     0.290387  Biso 1.000000     H
    H   1.0     0.746496     0.054890     0.358039  Biso 1.000000     H
    H   1.0     0.739026     0.155263     0.399107  Biso 1.000000     H
    H   1.0     0.369127     0.161302     0.279507  Biso 1.000000     H
    H   1.0     0.266630     0.107638     0.224835  Biso 1.000000     H
    H   1.0     0.633412     0.152669     0.269996  Biso 1.000000     H
    H   1.0     0.740084     0.107860     0.211947  Biso 1.000000     H
    C   1.0     0.609517     0.654467     0.873862  Biso 1.000000     C
    C   1.0     0.557131     0.709284     0.816310  Biso 1.000000     C
    C   1.0     0.615672     0.761634     0.761983  Biso 1.000000     C
    C   1.0     0.442351     0.708521     0.815160  Biso 1.000000     C
    C   1.0     0.389402     0.650226     0.868818  Biso 1.000000     C
    C   1.0     0.269348     0.645002     0.867931  Biso 1.000000     C
    C   1.0     0.736774     0.759939     0.761305  Biso 1.000000     C
    C   1.0     0.729491     0.654945     0.880136  Biso 1.000000     C
    C   1.0     0.218280     0.728419     0.842896  Biso 1.000000     C
    C   1.0     0.778861     0.736630     0.848408  Biso 1.000000     C
    C   1.0     0.109550     0.345567     0.126092  Biso 1.000000     C
    C   1.0     0.057146     0.290729     0.183658  Biso 1.000000     C
    C   1.0     0.115656     0.238429     0.238007  Biso 1.000000     C
    C   1.0     0.942400     0.291514     0.184889  Biso 1.000000     C
    C   1.0     0.889469     0.349773     0.131224  Biso 1.000000     C
    C   1.0     0.769417     0.354983     0.132128  Biso 1.000000     C
    C   1.0     0.236760     0.240114     0.238623  Biso 1.000000     C
    C   1.0     0.229531     0.345110     0.119800  Biso 1.000000     C
    C   1.0     0.718339     0.271558     0.157188  Biso 1.000000     C
    C   1.0     0.278885     0.263432     0.151505  Biso 1.000000     C
    C   1.0     0.859559     0.626129     0.154409  Biso 1.000000     C
    C   1.0     0.807157     0.683643     0.209297  Biso 1.000000     C
    C   1.0     0.865676     0.738021     0.261577  Biso 1.000000     C
    C   1.0     0.692379     0.684914     0.208455  Biso 1.000000     C
    C   1.0     0.639447     0.631206     0.150228  Biso 1.000000     C
    C   1.0     0.519399     0.632137     0.144993  Biso 1.000000     C
    C   1.0     0.986780     0.738649     0.259897  Biso 1.000000     C
    C   1.0     0.979532     0.619789     0.154921  Biso 1.000000     C
    C   1.0     0.468302     0.657171     0.228407  Biso 1.000000     C
    C   1.0     0.028836     0.651513     0.236580  Biso 1.000000     C
    C   1.0     0.359511     0.373902     0.845526  Biso 1.000000     C
    C   1.0     0.307120     0.316309     0.790740  Biso 1.000000     C
    C   1.0     0.365653     0.261999     0.738374  Biso 1.000000     C
    C   1.0     0.192337     0.315187     0.791458  Biso 1.000000     C
    C   1.0     0.139389     0.368828     0.849764  Biso 1.000000     C
    C   1.0     0.019332     0.367964     0.854965  Biso 1.000000     C
    C   1.0     0.486755     0.261327     0.740081  Biso 1.000000     C
    C   1.0     0.479489     0.380181     0.845062  Biso 1.000000     C
    C   1.0     0.968321     0.342910     0.771568  Biso 1.000000     C
    C   1.0     0.528864     0.348461     0.763388  Biso 1.000000     C
    C   1.0     0.640481     0.845598     0.373870  Biso 1.000000     C
    C   1.0     0.692891     0.790771     0.316304  Biso 1.000000     C
    C   1.0     0.634373     0.738406     0.262011  Biso 1.000000     C
    C   1.0     0.807674     0.791504     0.315146  Biso 1.000000     C
    C   1.0     0.860603     0.849793     0.368794  Biso 1.000000     C
    C   1.0     0.980657     0.855003     0.367893  Biso 1.000000     C
    C   1.0     0.513271     0.740137     0.261337  Biso 1.000000     C
    C   1.0     0.520501     0.845129     0.380173  Biso 1.000000     C
    C   1.0     0.031693     0.771582     0.342841  Biso 1.000000     C
    C   1.0     0.471145     0.763444     0.348456  Biso 1.000000     C
    C   1.0     0.140506     0.154461     0.626085  Biso 1.000000     C
    C   1.0     0.192885     0.209292     0.683642  Biso 1.000000     C
    C   1.0     0.134351     0.261614     0.737995  Biso 1.000000     C
    C   1.0     0.307664     0.208485     0.684858  Biso 1.000000     C
    C   1.0     0.360613     0.150204     0.631189  Biso 1.000000     C
    C   1.0     0.480664     0.144974     0.632087  Biso 1.000000     C
    C   1.0     0.013247     0.259938     0.738642  Biso 1.000000     C
    C   1.0     0.020531     0.154929     0.619819  Biso 1.000000     C
    C   1.0     0.531747     0.228395     0.657129  Biso 1.000000     C
    C   1.0     0.971201     0.236613     0.651538  Biso 1.000000     C
    C   1.0     0.390527     0.873909     0.654470  Biso 1.000000     C
    C   1.0     0.442910     0.816353     0.709289  Biso 1.000000     C
    C   1.0     0.384370     0.762015     0.761627  Biso 1.000000     C
    C   1.0     0.557691     0.815165     0.708490  Biso 1.000000     C
    C   1.0     0.610640     0.868823     0.650196  Biso 1.000000     C
    C   1.0     0.730696     0.867945     0.644974  Biso 1.000000     C
    C   1.0     0.263268     0.761349     0.759940  Biso 1.000000     C
    C   1.0     0.270550     0.880194     0.654955  Biso 1.000000     C
    C   1.0     0.781751     0.842909     0.728369  Biso 1.000000     C
    C   1.0     0.221171     0.848476     0.736630  Biso 1.000000     C
    C   1.0     0.890494     0.126076     0.345551  Biso 1.000000     C
    C   1.0     0.942900     0.183704     0.290781  Biso 1.000000     C
    C   1.0     0.884388     0.237981     0.238405  Biso 1.000000     C
    C   1.0     0.057650     0.184828     0.291461  Biso 1.000000     C
    C   1.0     0.110574     0.131228     0.349781  Biso 1.000000     C
    C   1.0     0.230627     0.132093     0.354948  Biso 1.000000     C
    C   1.0     0.763285     0.238642     0.240133  Biso 1.000000     C
    C   1.0     0.770513     0.119799     0.345116  Biso 1.000000     C
    C   1.0     0.281720     0.157150     0.271540  Biso 1.000000     C
    C   1.0     0.721185     0.151504     0.263450  Biso 1.000000     C
    N   1.0     0.554972     0.601816     0.922597  Biso 1.000000     N
    N   1.0     0.443422     0.598569     0.918848  Biso 1.000000     N
    N   1.0     0.055029     0.398278     0.077447  Biso 1.000000     N
    N   1.0     0.943498     0.401388     0.081118  Biso 1.000000     N
    N   1.0     0.805032     0.577435     0.101739  Biso 1.000000     N
    N   1.0     0.693477     0.581155     0.098562  Biso 1.000000     N
    N   1.0     0.304970     0.422611     0.898197  Biso 1.000000     N
    N   1.0     0.193419     0.418863     0.901417  Biso 1.000000     N
    N   1.0     0.695011     0.898247     0.422584  Biso 1.000000     N
    N   1.0     0.806564     0.901457     0.418839  Biso 1.000000     N
    N   1.0     0.195040     0.101731     0.577433  Biso 1.000000     N
    N   1.0     0.306602     0.098602     0.581087  Biso 1.000000     N
    N   1.0     0.445066     0.922557     0.601737  Biso 1.000000     N
    N   1.0     0.556632     0.918922     0.598600  Biso 1.000000     N
    N   1.0     0.945016     0.077406     0.398234  Biso 1.000000     N
    N   1.0     0.056531     0.081167     0.401429  Biso 1.000000     N
   Cl   1.0     0.749373     0.441992     0.923717  Biso 1.000000    Cl
   Cl   1.0     0.249288     0.558049     0.076325  Biso 1.000000    Cl
   Cl   1.0     0.999388     0.576360     0.941990  Biso 1.000000    Cl
   Cl   1.0     0.499290     0.423707     0.057989  Biso 1.000000    Cl
   Cl   1.0     0.500743     0.058038     0.423689  Biso 1.000000    Cl
   Cl   1.0     0.000639     0.942013     0.576286  Biso 1.000000    Cl
   Cl   1.0     0.250703     0.923708     0.442019  Biso 1.000000    Cl
   Cl   1.0     0.750698     0.076349     0.558023  Biso 1.000000    Cl
   Cu   1.0     0.624436     0.521680     0.002483  Biso 1.000000    Cu
   Cu   1.0     0.124426     0.478398     0.997483  Biso 1.000000    Cu
   Cu   1.0     0.874483     0.497481     0.021644  Biso 1.000000    Cu
   Cu   1.0     0.374396     0.502478     0.978366  Biso 1.000000    Cu
   Cu   1.0     0.625604     0.978407     0.502486  Biso 1.000000    Cu
   Cu   1.0     0.125575     0.021662     0.497470  Biso 1.000000    Cu
   Cu   1.0     0.375619     0.002460     0.521647  Biso 1.000000    Cu
   Cu   1.0     0.875586     0.997515     0.478380  Biso 1.000000    Cu
