#======================================================================

# CRYSTAL DATA

#----------------------------------------------------------------------

data_VESTA_phase_1


_pd_phase_name                         MOF
_cell_length_a                         13.21500
_cell_length_b                         17.40800
_cell_length_c                         17.40900
_cell_angle_alpha                      81.73400
_cell_angle_beta                       67.67800
_cell_angle_gamma                      67.69000
_symmetry_space_group_name_H-M         "P 1"
_symmetry_Int_Tables_number            1

loop_
_symmetry_equiv_pos_as_xyz
   "x, y, z"

loop_
   _atom_site_label
   _atom_site_occupancy
   _atom_site_fract_x
   _atom_site_fract_y
   _atom_site_fract_z
   _atom_site_adp_type
   _atom_site_B_iso_or_equiv
   _atom_site_type_symbol
    H   1.0     0.204496     0.186257     0.955022  Biso 1.000000     H
    H   1.0     0.251105     0.153482     0.852113  Biso 1.000000     H
    H   1.0     0.282661     0.007431     0.896850  Biso 1.000000     H
    H   1.0     0.139078     0.071034     0.954797  Biso 1.000000     H
    H   1.0     0.845914     0.313649     0.545123  Biso 1.000000     H
    H   1.0     0.756822     0.346388     0.648056  Biso 1.000000     H
    H   1.0     0.686839     0.492432     0.603366  Biso 1.000000     H
    H   1.0     0.664939     0.428768     0.545429  Biso 1.000000     H
    H   1.0     0.659439     0.045204     0.686486  Biso 1.000000     H
    H   1.0     0.603205     0.148105     0.653740  Biso 1.000000     H
    H   1.0     0.679344     0.103306     0.507704  Biso 1.000000     H
    H   1.0     0.593665     0.045446     0.571350  Biso 1.000000     H
    H   1.0     0.890759     0.455070     0.813744  Biso 1.000000     H
    H   1.0     0.904571     0.352162     0.846394  Biso 1.000000     H
    H   1.0     0.790032     0.396891     0.992512  Biso 1.000000     H
    H   1.0     0.710075     0.454850     0.928969  Biso 1.000000     H
    H   1.0     0.154162     0.455039     0.686254  Biso 1.000000     H
    H   1.0     0.243292     0.352115     0.653530  Biso 1.000000     H
    H   1.0     0.313150     0.396801     0.507448  Biso 1.000000     H
    H   1.0     0.335092     0.454775     0.571049  Biso 1.000000     H
    H   1.0     0.795376     0.045127     0.813637  Biso 1.000000     H
    H   1.0     0.748697     0.148035     0.846444  Biso 1.000000     H
    H   1.0     0.717282     0.103285     0.992461  Biso 1.000000     H
    H   1.0     0.860858     0.045383     0.928798  Biso 1.000000     H
    H   1.0     0.109231     0.186280     0.544976  Biso 1.000000     H
    H   1.0     0.095395     0.153596     0.647879  Biso 1.000000     H
    H   1.0     0.209891     0.007498     0.603121  Biso 1.000000     H
    H   1.0     0.289895     0.071039     0.545171  Biso 1.000000     H
    H   1.0     0.340432     0.313552     0.954874  Biso 1.000000     H
    H   1.0     0.396764     0.346241     0.851955  Biso 1.000000     H
    H   1.0     0.320715     0.492293     0.896692  Biso 1.000000     H
    H   1.0     0.406294     0.428655     0.954596  Biso 1.000000     H
    H   1.0     0.795506     0.813754     0.045020  Biso 1.000000     H
    H   1.0     0.748841     0.846565     0.147924  Biso 1.000000     H
    H   1.0     0.717286     0.992607     0.103156  Biso 1.000000     H
    H   1.0     0.860879     0.929004     0.045233  Biso 1.000000     H
    H   1.0     0.154072     0.686337     0.454913  Biso 1.000000     H
    H   1.0     0.243149     0.653570     0.351986  Biso 1.000000     H
    H   1.0     0.313117     0.507536     0.396697  Biso 1.000000     H
    H   1.0     0.335023     0.571205     0.454623  Biso 1.000000     H
    H   1.0     0.340454     0.954843     0.313557  Biso 1.000000     H
    H   1.0     0.396725     0.851935     0.346282  Biso 1.000000     H
    H   1.0     0.320612     0.896710     0.492326  Biso 1.000000     H
    H   1.0     0.406262     0.954589     0.428680  Biso 1.000000     H
    H   1.0     0.109213     0.544890     0.186274  Biso 1.000000     H
    H   1.0     0.095422     0.647804     0.153655  Biso 1.000000     H
    H   1.0     0.209973     0.603101     0.007529  Biso 1.000000     H
    H   1.0     0.289918     0.545117     0.071074  Biso 1.000000     H
    H   1.0     0.845777     0.544948     0.313802  Biso 1.000000     H
    H   1.0     0.756659     0.647872     0.346536  Biso 1.000000     H
    H   1.0     0.686802     0.603180     0.492617  Biso 1.000000     H
    H   1.0     0.664859     0.545210     0.429016  Biso 1.000000     H
    H   1.0     0.204605     0.954876     0.186367  Biso 1.000000     H
    H   1.0     0.251293     0.851970     0.153554  Biso 1.000000     H
    H   1.0     0.282695     0.896727     0.007537  Biso 1.000000     H
    H   1.0     0.139125     0.954629     0.071206  Biso 1.000000     H
    H   1.0     0.890699     0.813725     0.455119  Biso 1.000000     H
    H   1.0     0.904538     0.846380     0.352206  Biso 1.000000     H
    H   1.0     0.790051     0.992493     0.396931  Biso 1.000000     H
    H   1.0     0.710039     0.928961     0.454891  Biso 1.000000     H
    H   1.0     0.659613     0.686448     0.045089  Biso 1.000000     H
    H   1.0     0.603222     0.653800     0.148018  Biso 1.000000     H
    H   1.0     0.679268     0.507732     0.103318  Biso 1.000000     H
    H   1.0     0.593699     0.571357     0.045400  Biso 1.000000     H
    H   1.0     0.198502     0.072790     0.072910  Biso 1.000000     H
    H   1.0     0.844197     0.427101     0.427262  Biso 1.000000     H
    H   1.0     0.771233     0.927272     0.573001  Biso 1.000000     H
    H   1.0     0.771338     0.572942     0.927244  Biso 1.000000     H
    H   1.0     0.155760     0.572884     0.572795  Biso 1.000000     H
    H   1.0     0.801498     0.927213     0.927103  Biso 1.000000     H
    H   1.0     0.228672     0.072754     0.427067  Biso 1.000000     H
    H   1.0     0.228663     0.427039     0.072747  Biso 1.000000     H
    C   1.0     0.387220     0.119547     0.901908  Biso 1.000000     C
    C   1.0     0.440948     0.058963     0.952857  Biso 1.000000     C
    C   1.0     0.263660     0.133750     0.911801  Biso 1.000000     C
    C   1.0     0.231727     0.056558     0.944508  Biso 1.000000     C
    C   1.0     0.908755     0.380401     0.598182  Biso 1.000000     C
    C   1.0     0.952791     0.441008     0.547210  Biso 1.000000     C
    C   1.0     0.809295     0.366149     0.588354  Biso 1.000000     C
    C   1.0     0.732776     0.443313     0.555698  Biso 1.000000     C
    C   1.0     0.789130     0.098188     0.619706  Biso 1.000000     C
    C   1.0     0.893792     0.047180     0.559072  Biso 1.000000     C
    C   1.0     0.675405     0.088371     0.633978  Biso 1.000000     C
    C   1.0     0.676081     0.055671     0.556809  Biso 1.000000     C
    C   1.0     0.006767     0.401854     0.880440  Biso 1.000000     C
    C   1.0    -0.000070     0.452862     0.940999  Biso 1.000000     C
    C   1.0     0.897405     0.411830     0.866198  Biso 1.000000     C
    C   1.0     0.788253     0.444550     0.943430  Biso 1.000000     C
    C   1.0     0.091318     0.401887     0.619570  Biso 1.000000     C
    C   1.0     0.047219     0.452837     0.558991  Biso 1.000000     C
    C   1.0     0.190774     0.411787     0.633771  Biso 1.000000     C
    C   1.0     0.267232     0.444469     0.556567  Biso 1.000000     C
    C   1.0     0.612664     0.098154     0.880426  Biso 1.000000     C
    C   1.0     0.558999     0.047163     0.941012  Biso 1.000000     C
    C   1.0     0.736215     0.088318     0.866168  Biso 1.000000     C
    C   1.0     0.768208     0.055632     0.943329  Biso 1.000000     C
    C   1.0     0.993191     0.119614     0.598135  Biso 1.000000     C
    C   1.0     0.000000     0.059004     0.547178  Biso 1.000000     C
    C   1.0     0.102571     0.133814     0.588199  Biso 1.000000     C
    C   1.0     0.211707     0.056585     0.555467  Biso 1.000000     C
    C   1.0     0.210836     0.380364     0.901797  Biso 1.000000     C
    C   1.0     0.106161     0.440952     0.952844  Biso 1.000000     C
    C   1.0     0.324535     0.366038     0.911675  Biso 1.000000     C
    C   1.0     0.323896     0.443209     0.944350  Biso 1.000000     C
    C   1.0     0.612759     0.880470     0.098107  Biso 1.000000     C
    C   1.0     0.559046     0.941032     0.047136  Biso 1.000000     C
    C   1.0     0.736316     0.866271     0.088223  Biso 1.000000     C
    C   1.0     0.768236     0.943468     0.055509  Biso 1.000000     C
    C   1.0     0.091218     0.619567     0.401861  Biso 1.000000     C
    C   1.0     0.047157     0.558980     0.452853  Biso 1.000000     C
    C   1.0     0.190668     0.633828     0.411697  Biso 1.000000     C
    C   1.0     0.267180     0.556663     0.444356  Biso 1.000000     C
    C   1.0     0.210802     0.901815     0.380357  Biso 1.000000     C
    C   1.0     0.106137     0.952829     0.440983  Biso 1.000000     C
    C   1.0     0.324517     0.911663     0.366058  Biso 1.000000     C
    C   1.0     0.323853     0.944353     0.443228  Biso 1.000000     C
    C   1.0     0.993216     0.598115     0.119599  Biso 1.000000     C
    C   1.0     0.000000     0.547143     0.059004  Biso 1.000000     C
    C   1.0     0.102584     0.588147     0.133829  Biso 1.000000     C
    C   1.0     0.211745     0.555430     0.056601  Biso 1.000000     C
    C   1.0     0.908625     0.598101     0.380497  Biso 1.000000     C
    C   1.0     0.952737     0.547143     0.441067  Biso 1.000000     C
    C   1.0     0.809180     0.588195     0.366286  Biso 1.000000     C
    C   1.0     0.732722     0.555516     0.443495  Biso 1.000000     C
    C   1.0     0.387326     0.901846     0.119573  Biso 1.000000     C
    C   1.0     0.440989     0.952840     0.058989  Biso 1.000000     C
    C   1.0     0.263771     0.911689     0.133834  Biso 1.000000     C
    C   1.0     0.231777     0.944376     0.056674  Biso 1.000000     C
    C   1.0     0.006739     0.880397     0.401918  Biso 1.000000     C
    C   1.0    -0.000106     0.941000     0.452882  Biso 1.000000     C
    C   1.0     0.897363     0.866178     0.411878  Biso 1.000000     C
    C   1.0     0.788228     0.943414     0.444593  Biso 1.000000     C
    C   1.0     0.789168     0.619670     0.098175  Biso 1.000000     C
    C   1.0     0.893833     0.559051     0.047160  Biso 1.000000     C
    C   1.0     0.675466     0.633977     0.088311  Biso 1.000000     C
    C   1.0     0.676096     0.556803     0.055647  Biso 1.000000     C
    C   1.0     0.380839     0.012203     0.012255  Biso 1.000000     C
    C   1.0     0.256452     0.024351     0.024462  Biso 1.000000     C
    C   1.0     0.905249     0.487754     0.487847  Biso 1.000000     C
    C   1.0     0.805221     0.475547     0.475704  Biso 1.000000     C
    C   1.0     0.893004     0.987804     0.512321  Biso 1.000000     C
    C   1.0     0.780748     0.975673     0.524560  Biso 1.000000     C
    C   1.0     0.893042     0.512296     0.987797  Biso 1.000000     C
    C   1.0     0.780794     0.524522     0.975667  Biso 1.000000     C
    C   1.0     0.094700     0.512232     0.512215  Biso 1.000000     C
    C   1.0     0.194733     0.524436     0.524354  Biso 1.000000     C
    C   1.0     0.619155     0.987795     0.987741  Biso 1.000000     C
    C   1.0     0.743534     0.975656     0.975545  Biso 1.000000     C
    C   1.0     0.106925     0.012205     0.487736  Biso 1.000000     C
    C   1.0     0.219177     0.024341     0.475496  Biso 1.000000     C
    C   1.0     0.106953     0.487706     0.012208  Biso 1.000000     C
    C   1.0     0.219202     0.475472     0.024338  Biso 1.000000     C
    N   1.0     0.442879     0.164312     0.845611  Biso 1.000000     N
    N   1.0     0.952901     0.335680     0.654466  Biso 1.000000     N
    N   1.0     0.788539     0.154521     0.664414  Biso 1.000000     N
    N   1.0     0.107228     0.345585     0.835601  Biso 1.000000     N
    N   1.0     0.047204     0.345586     0.664328  Biso 1.000000     N
    N   1.0     0.556957     0.154440     0.835700  Biso 1.000000     N
    N   1.0     0.892755     0.164372     0.654490  Biso 1.000000     N
    N   1.0     0.211403     0.335563     0.845558  Biso 1.000000     N
    N   1.0     0.557106     0.835693     0.154390  Biso 1.000000     N
    N   1.0     0.047028     0.664324     0.345610  Biso 1.000000     N
    N   1.0     0.211384     0.845520     0.335610  Biso 1.000000     N
    N   1.0     0.892777     0.654454     0.164366  Biso 1.000000     N
    N   1.0     0.952784     0.654369     0.335705  Biso 1.000000     N
    N   1.0     0.443010     0.845584     0.164327  Biso 1.000000     N
    N   1.0     0.107186     0.835607     0.345593  Biso 1.000000     N
    N   1.0     0.788577     0.664391     0.154493  Biso 1.000000     N
   Cu   1.0     0.362560     0.249842     0.774798  Biso 1.000000    Cu
   Cu   1.0     0.887300     0.250079     0.725288  Biso 1.000000    Cu
   Cu   1.0     0.637362     0.225272     0.750145  Biso 1.000000    Cu
   Cu   1.0     0.112738     0.274775     0.749893  Biso 1.000000    Cu
   Cu   1.0     0.637426     0.750171     0.225204  Biso 1.000000    Cu
   Cu   1.0     0.112659     0.749904     0.274763  Biso 1.000000    Cu
   Cu   1.0     0.362590     0.774754     0.249886  Biso 1.000000    Cu
   Cu   1.0     0.887223     0.725197     0.250166  Biso 1.000000    Cu
    I   1.0     0.499950     0.329414     0.670665  Biso 1.000000     I
    I   1.0    -0.000014     0.170640     0.829426  Biso 1.000000     I
    I   1.0     0.670467     0.329551     0.829528  Biso 1.000000     I
    I   1.0     0.329515     0.170507     0.670470  Biso 1.000000     I
    I   1.0     0.500017     0.670592     0.329343  Biso 1.000000     I
    I   1.0    -0.000026     0.829361     0.170632  Biso 1.000000     I
    I   1.0     0.329473     0.670479     0.170522  Biso 1.000000     I
    I   1.0     0.670460     0.829465     0.329559  Biso 1.000000     I
