#======================================================================

# CRYSTAL DATA

#----------------------------------------------------------------------

data_VESTA_phase_1


_pd_phase_name                         MOF
_cell_length_a                         16.15800
_cell_length_b                         18.10400
_cell_length_c                         18.80700
_cell_angle_alpha                      90.00000
_cell_angle_beta                       90.00000
_cell_angle_gamma                      92.61500
_symmetry_space_group_name_H-M         "P 1"
_symmetry_Int_Tables_number            1

loop_
_symmetry_equiv_pos_as_xyz
   "x, y, z"

loop_
   _atom_site_label
   _atom_site_occupancy
   _atom_site_fract_x
   _atom_site_fract_y
   _atom_site_fract_z
   _atom_site_adp_type
   _atom_site_B_iso_or_equiv
   _atom_site_type_symbol
    H   1.0     0.594877     0.513009     0.658680  Biso 1.000000     H
    H   1.0     0.577623     0.609667     0.751188  Biso 1.000000     H
    H   1.0     0.641339     0.697893     0.840054  Biso 1.000000     H
    H   1.0     0.902243     0.697819     0.881854  Biso 1.000000     H
    H   1.0     0.918732     0.598543     0.791872  Biso 1.000000     H
    H   1.0     0.856379     0.515386     0.698274  Biso 1.000000     H
    H   1.0     0.592327     0.510812     0.345115  Biso 1.000000     H
    H   1.0     0.575596     0.605806     0.251170  Biso 1.000000     H
    H   1.0     0.639721     0.700333     0.168330  Biso 1.000000     H
    H   1.0     0.900525     0.754471     0.179088  Biso 1.000000     H
    H   1.0     0.916594     0.662332     0.276257  Biso 1.000000     H
    H   1.0     0.853294     0.564333     0.355940  Biso 1.000000     H
    H   1.0     0.962972     0.309907     0.585268  Biso 1.000000     H
    H   1.0     0.109825     0.310068     0.587054  Biso 1.000000     H
    H   1.0     0.240348     0.433551     0.458050  Biso 1.000000     H
    H   1.0     0.238853     0.305256     0.566039  Biso 1.000000     H
    H   1.0     0.367709     0.244623     0.576484  Biso 1.000000     H
    H   1.0     0.521908     0.247659     0.562054  Biso 1.000000     H
    H   1.0     0.523328     0.450977     0.461680  Biso 1.000000     H
    H   1.0     0.371497     0.459169     0.473917  Biso 1.000000     H
    H   1.0     0.110875     0.472784     0.418583  Biso 1.000000     H
    H   1.0     0.962465     0.464112     0.423164  Biso 1.000000     H
    H   1.0     0.605621     0.000000     0.852802  Biso 1.000000     H
    H   1.0     0.566962     0.098220     0.760243  Biso 1.000000     H
    H   1.0     0.630557     0.186460     0.671327  Biso 1.000000     H
    H   1.0     0.891446     0.186535     0.629413  Biso 1.000000     H
    H   1.0     0.908069     0.087303     0.719417  Biso 1.000000     H
    H   1.0     0.867102     0.000000     0.813100  Biso 1.000000     H
    H   1.0     0.602798     0.000000     0.158801  Biso 1.000000     H
    H   1.0     0.564944     0.094586     0.252750  Biso 1.000000     H
    H   1.0     0.629183     0.189095     0.335540  Biso 1.000000     H
    H   1.0     0.890004     0.243113     0.324637  Biso 1.000000     H
    H   1.0     0.905948     0.150939     0.227480  Biso 1.000000     H
    H   1.0     0.842532     0.052960     0.147844  Biso 1.000000     H
    H   1.0     0.973954     0.821247     0.926012  Biso 1.000000     H
    H   1.0     0.120810     0.821397     0.924280  Biso 1.000000     H
    H   1.0     0.250657     0.944770     0.045767  Biso 1.000000     H
    H   1.0     0.249833     0.816565     0.945350  Biso 1.000000     H
    H   1.0     0.378688     0.755879     0.935048  Biso 1.000000     H
    H   1.0     0.532882     0.758923     0.949535  Biso 1.000000     H
    H   1.0     0.533643     0.962242     0.042165  Biso 1.000000     H
    H   1.0     0.381819     0.970441     0.029846  Biso 1.000000     H
    H   1.0     0.121165     0.983987     0.085211  Biso 1.000000     H
    H   1.0     0.972758     0.975341     0.080557  Biso 1.000000     H
    H   1.0     0.423496    -0.001554     0.154774  Biso 1.000000     H
    H   1.0     0.462156     0.924455     0.247333  Biso 1.000000     H
    H   1.0     0.398560     0.836212     0.336247  Biso 1.000000     H
    H   1.0     0.137670     0.836132     0.378156  Biso 1.000000     H
    H   1.0     0.121047     0.935364     0.288153  Biso 1.000000     H
    H   1.0     0.162014    -0.004089     0.194472  Biso 1.000000     H
    H   1.0     0.426317     0.000515     0.848766  Biso 1.000000     H
    H   1.0     0.464171     0.928093     0.754817  Biso 1.000000     H
    H   1.0     0.399933     0.833578     0.672031  Biso 1.000000     H
    H   1.0     0.139115     0.779552     0.682943  Biso 1.000000     H
    H   1.0     0.123170     0.871727     0.780099  Biso 1.000000     H
    H   1.0     0.186585     0.969709     0.859732  Biso 1.000000     H
    H   1.0     0.055163     0.201420     0.081565  Biso 1.000000     H
    H   1.0     0.908306     0.201270     0.083296  Biso 1.000000     H
    H   1.0     0.778460     0.077902     0.961805  Biso 1.000000     H
    H   1.0     0.779284     0.206106     0.062225  Biso 1.000000     H
    H   1.0     0.650429     0.266793     0.072525  Biso 1.000000     H
    H   1.0     0.496235     0.263749     0.058038  Biso 1.000000     H
    H   1.0     0.495474     0.060430     0.965409  Biso 1.000000     H
    H   1.0     0.647297     0.052230     0.977728  Biso 1.000000     H
    H   1.0     0.907952     0.038687     0.922360  Biso 1.000000     H
    H   1.0     0.056360     0.047334     0.927015  Biso 1.000000     H
    H   1.0     0.434240     0.509668     0.348889  Biso 1.000000     H
    H   1.0     0.451495     0.413010     0.256381  Biso 1.000000     H
    H   1.0     0.387778     0.324781     0.167518  Biso 1.000000     H
    H   1.0     0.126873     0.324849     0.125723  Biso 1.000000     H
    H   1.0     0.110384     0.424126     0.215704  Biso 1.000000     H
    H   1.0     0.172737     0.507286     0.309300  Biso 1.000000     H
    H   1.0     0.436789     0.511861     0.662460  Biso 1.000000     H
    H   1.0     0.453520     0.416866     0.756404  Biso 1.000000     H
    H   1.0     0.389396     0.322337     0.839242  Biso 1.000000     H
    H   1.0     0.128593     0.268198     0.828483  Biso 1.000000     H
    H   1.0     0.112524     0.360337     0.731315  Biso 1.000000     H
    H   1.0     0.175823     0.458338     0.651633  Biso 1.000000     H
    H   1.0     0.066145     0.712763     0.422305  Biso 1.000000     H
    H   1.0     0.919292     0.712602     0.420518  Biso 1.000000     H
    H   1.0     0.788769     0.589121     0.549523  Biso 1.000000     H
    H   1.0     0.790264     0.717414     0.441532  Biso 1.000000     H
    H   1.0     0.661408     0.778048     0.431089  Biso 1.000000     H
    H   1.0     0.507208     0.775013     0.445519  Biso 1.000000     H
    H   1.0     0.505789     0.571694     0.545893  Biso 1.000000     H
    H   1.0     0.657620     0.563501     0.533655  Biso 1.000000     H
    H   1.0     0.918242     0.549888     0.588991  Biso 1.000000     H
    H   1.0     0.066652     0.558560     0.584410  Biso 1.000000     H
    C   1.0     0.736822     0.456761     0.611881  Biso 1.000000     C
    C   1.0     0.727440     0.510182     0.672058  Biso 1.000000     C
    C   1.0     0.647864     0.536078     0.688275  Biso 1.000000     C
    C   1.0     0.638682     0.589232     0.739548  Biso 1.000000     C
    C   1.0     0.708365     0.619038     0.777800  Biso 1.000000     C
    C   1.0     0.701516     0.675505     0.829143  Biso 1.000000     C
    C   1.0     0.770387     0.703942     0.865403  Biso 1.000000     C
    C   1.0     0.849246     0.675276     0.851919  Biso 1.000000     C
    C   1.0     0.858025     0.620327     0.802315  Biso 1.000000     C
    C   1.0     0.788569     0.591197     0.763372  Biso 1.000000     C
    C   1.0     0.795890     0.536742     0.710080  Biso 1.000000     C
    C   1.0     0.761974     0.765696     0.917811  Biso 1.000000     C
    C   1.0     0.732397     0.474146     0.412084  Biso 1.000000     C
    C   1.0     0.724353     0.532113     0.355750  Biso 1.000000     C
    C   1.0     0.645339     0.544311     0.325941  Biso 1.000000     C
    C   1.0     0.636447     0.596763     0.273925  Biso 1.000000     C
    C   1.0     0.706168     0.639564     0.248303  Biso 1.000000     C
    C   1.0     0.699671     0.691881     0.192890  Biso 1.000000     C
    C   1.0     0.768699     0.732112     0.168116  Biso 1.000000     C
    C   1.0     0.847386     0.721834     0.199402  Biso 1.000000     C
    C   1.0     0.855807     0.671058     0.253145  Biso 1.000000     C
    C   1.0     0.786200     0.628045     0.278763  Biso 1.000000     C
    C   1.0     0.793027     0.573840     0.332447  Biso 1.000000     C
    C   1.0     0.760780     0.785297     0.107367  Biso 1.000000     C
    C   1.0     0.000000     0.344560     0.549088  Biso 1.000000     C
    C   1.0     0.078862     0.344928     0.549130  Biso 1.000000     C
    C   1.0     0.124318     0.390039     0.500548  Biso 1.000000     C
    C   1.0     0.214194     0.392481     0.495102  Biso 1.000000     C
    C   1.0     0.264975     0.348028     0.530541  Biso 1.000000     C
    C   1.0     0.354847     0.350510     0.524200  Biso 1.000000     C
    C   1.0     0.399725     0.291478     0.550359  Biso 1.000000     C
    C   1.0     0.485136     0.292358     0.542443  Biso 1.000000     C
    C   1.0     0.485807     0.406567     0.486464  Biso 1.000000     C
    C   1.0     0.400730     0.409838     0.492673  Biso 1.000000     C
    C   1.0     0.078594     0.434672     0.455134  Biso 1.000000     C
    C   1.0     0.999939     0.430872     0.457885  Biso 1.000000     C
    C   1.0     0.747625     0.968101     0.899542  Biso 1.000000     C
    C   1.0     0.738180     0.000000     0.839359  Biso 1.000000     C
    C   1.0     0.637311     0.024730     0.823169  Biso 1.000000     C
    C   1.0     0.628049     0.077837     0.771868  Biso 1.000000     C
    C   1.0     0.697687     0.107668     0.733573  Biso 1.000000     C
    C   1.0     0.690759     0.164114     0.682219  Biso 1.000000     C
    C   1.0     0.759591     0.192589     0.645933  Biso 1.000000     C
    C   1.0     0.838483     0.163972     0.659379  Biso 1.000000     C
    C   1.0     0.847338     0.109049     0.708997  Biso 1.000000     C
    C   1.0     0.777930     0.079899     0.747987  Biso 1.000000     C
    C   1.0     0.785333     0.025482     0.801302  Biso 1.000000     C
    C   1.0     0.751114     0.254346     0.593539  Biso 1.000000     C
    C   1.0     0.742812     0.985429     0.091738  Biso 1.000000     C
    C   1.0     0.713572     0.020805     0.148088  Biso 1.000000     C
    C   1.0     0.634590     0.033048     0.177941  Biso 1.000000     C
    C   1.0     0.625770     0.085509     0.229961  Biso 1.000000     C
    C   1.0     0.695533     0.128280     0.255544  Biso 1.000000     C
    C   1.0     0.689109     0.180615     0.310949  Biso 1.000000     C
    C   1.0     0.758176     0.220823     0.335681  Biso 1.000000     C
    C   1.0     0.836832     0.210497     0.304356  Biso 1.000000     C
    C   1.0     0.845184     0.159699     0.250621  Biso 1.000000     C
    C   1.0     0.775534     0.116716     0.225045  Biso 1.000000     C
    C   1.0     0.782285     0.062501     0.171361  Biso 1.000000     C
    C   1.0     0.750318     0.274020     0.396428  Biso 1.000000     C
    C   1.0     0.000000     0.855894     0.962210  Biso 1.000000     C
    C   1.0     0.089828     0.856251     0.962198  Biso 1.000000     C
    C   1.0     0.134645     0.901268     0.003228  Biso 1.000000     C
    C   1.0     0.224520     0.903705     0.008702  Biso 1.000000     C
    C   1.0     0.275939     0.859337     0.980856  Biso 1.000000     C
    C   1.0     0.365809     0.861815     0.987234  Biso 1.000000     C
    C   1.0     0.410693     0.802755     0.961147  Biso 1.000000     C
    C   1.0     0.496099     0.803636     0.969098  Biso 1.000000     C
    C   1.0     0.496130     0.917812     0.017404  Biso 1.000000     C
    C   1.0     0.411057     0.921087     0.011154  Biso 1.000000     C
    C   1.0     0.088902     0.945892     0.048633  Biso 1.000000     C
    C   1.0     0.000000     0.942105     0.045846  Biso 1.000000     C
    C   1.0     0.281492     0.054572     0.108032  Biso 1.000000     C
    C   1.0     0.290937     0.001180     0.168215  Biso 1.000000     C
    C   1.0     0.391806     0.997945     0.184407  Biso 1.000000     C
    C   1.0     0.401069     0.944836     0.235707  Biso 1.000000     C
    C   1.0     0.331430     0.915003     0.274000  Biso 1.000000     C
    C   1.0     0.338358     0.858557     0.325354  Biso 1.000000     C
    C   1.0     0.269526     0.830082     0.361640  Biso 1.000000     C
    C   1.0     0.190633     0.858697     0.348192  Biso 1.000000     C
    C   1.0     0.181778     0.913620     0.298575  Biso 1.000000     C
    C   1.0     0.251187     0.942773     0.259587  Biso 1.000000     C
    C   1.0     0.243784     0.997190     0.206272  Biso 1.000000     C
    C   1.0     0.278003     0.768325     0.414034  Biso 1.000000     C
    C   1.0     0.286305     0.037243     0.915835  Biso 1.000000     C
    C   1.0     0.315544     0.000000     0.859485  Biso 1.000000     C
    C   1.0     0.394525     0.989629     0.829628  Biso 1.000000     C
    C   1.0     0.403346     0.937167     0.777608  Biso 1.000000     C
    C   1.0     0.333584     0.894393     0.752029  Biso 1.000000     C
    C   1.0     0.340007     0.842058     0.696624  Biso 1.000000     C
    C   1.0     0.270941     0.801848     0.671893  Biso 1.000000     C
    C   1.0     0.192286     0.812170     0.703222  Biso 1.000000     C
    C   1.0     0.183934     0.862969     0.756956  Biso 1.000000     C
    C   1.0     0.253583     0.905957     0.782529  Biso 1.000000     C
    C   1.0     0.246831     0.960171     0.836213  Biso 1.000000     C
    C   1.0     0.278798     0.748651     0.611146  Biso 1.000000     C
    C   1.0     0.017745     0.166775     0.045366  Biso 1.000000     C
    C   1.0     0.939288     0.166418     0.045378  Biso 1.000000     C
    C   1.0     0.894472     0.121403     0.000000  Biso 1.000000     C
    C   1.0     0.804597     0.118966     0.998871  Biso 1.000000     C
    C   1.0     0.753178     0.163334     0.026718  Biso 1.000000     C
    C   1.0     0.663308     0.160856     0.020340  Biso 1.000000     C
    C   1.0     0.618424     0.219917     0.046426  Biso 1.000000     C
    C   1.0     0.533018     0.219035     0.038475  Biso 1.000000     C
    C   1.0     0.532987     0.104860     0.990169  Biso 1.000000     C
    C   1.0     0.618060     0.101585     0.996419  Biso 1.000000     C
    C   1.0     0.940215     0.076780     0.958940  Biso 1.000000     C
    C   1.0     0.018868     0.080568     0.961726  Biso 1.000000     C
    C   1.0     0.292295     0.565912     0.395691  Biso 1.000000     C
    C   1.0     0.301678     0.512492     0.335514  Biso 1.000000     C
    C   1.0     0.381254     0.486598     0.319295  Biso 1.000000     C
    C   1.0     0.390436     0.433443     0.268023  Biso 1.000000     C
    C   1.0     0.320752     0.403634     0.229773  Biso 1.000000     C
    C   1.0     0.327601     0.347167     0.178430  Biso 1.000000     C
    C   1.0     0.258730     0.318730     0.142171  Biso 1.000000     C
    C   1.0     0.179871     0.347394     0.155657  Biso 1.000000     C
    C   1.0     0.171091     0.402344     0.205260  Biso 1.000000     C
    C   1.0     0.240548     0.431477     0.244200  Biso 1.000000     C
    C   1.0     0.233227     0.485931     0.297492  Biso 1.000000     C
    C   1.0     0.267143     0.256976     0.089763  Biso 1.000000     C
    C   1.0     0.296720     0.548525     0.595490  Biso 1.000000     C
    C   1.0     0.304764     0.490558     0.651824  Biso 1.000000     C
    C   1.0     0.383778     0.478361     0.681634  Biso 1.000000     C
    C   1.0     0.392670     0.425908     0.733649  Biso 1.000000     C
    C   1.0     0.322949     0.383107     0.759271  Biso 1.000000     C
    C   1.0     0.329446     0.330789     0.814683  Biso 1.000000     C
    C   1.0     0.260419     0.290557     0.839456  Biso 1.000000     C
    C   1.0     0.181732     0.300834     0.808170  Biso 1.000000     C
    C   1.0     0.173311     0.351611     0.754427  Biso 1.000000     C
    C   1.0     0.242917     0.394625     0.728810  Biso 1.000000     C
    C   1.0     0.236090     0.448831     0.675127  Biso 1.000000     C
    C   1.0     0.268337     0.237374     0.900207  Biso 1.000000     C
    C   1.0     0.028711     0.678111     0.458485  Biso 1.000000     C
    C   1.0     0.950255     0.677742     0.458443  Biso 1.000000     C
    C   1.0     0.904799     0.632632     0.507025  Biso 1.000000     C
    C   1.0     0.814923     0.630191     0.512470  Biso 1.000000     C
    C   1.0     0.764142     0.674643     0.477031  Biso 1.000000     C
    C   1.0     0.674269     0.672161     0.483372  Biso 1.000000     C
    C   1.0     0.629392     0.731194     0.457214  Biso 1.000000     C
    C   1.0     0.543981     0.730314     0.465130  Biso 1.000000     C
    C   1.0     0.543310     0.616104     0.521109  Biso 1.000000     C
    C   1.0     0.628387     0.612833     0.514899  Biso 1.000000     C
    C   1.0     0.950523     0.588000     0.552439  Biso 1.000000     C
    C   1.0     0.029178     0.591800     0.549688  Biso 1.000000     C
    N   1.0     0.957272     0.386290     0.503798  Biso 1.000000     N
    N   1.0     0.527954     0.348699     0.510315  Biso 1.000000     N
    N   1.0     0.967595     0.897539    -0.000087  Biso 1.000000     N
    N   1.0     0.538909     0.860005     0.000000  Biso 1.000000     N
    N   1.0     0.061522     0.125132     0.000000  Biso 1.000000     N
    N   1.0     0.490208     0.162667     0.006382  Biso 1.000000     N
    N   1.0     0.071845     0.636382     0.503776  Biso 1.000000     N
    N   1.0     0.501163     0.673972     0.497258  Biso 1.000000     N
    O   1.0     0.670762     0.436622     0.578863  Biso 1.000000     O
    O   1.0     0.809753     0.437825     0.596410  Biso 1.000000     O
    O   1.0     0.828530     0.792832     0.945661  Biso 1.000000     O
    O   1.0     0.689119     0.786710     0.930021  Biso 1.000000     O
    O   1.0     0.803005     0.468893     0.441795  Biso 1.000000     O
    O   1.0     0.667258     0.434614     0.426261  Biso 1.000000     O
    O   1.0     0.690253     0.786915     0.077281  Biso 1.000000     O
    O   1.0     0.825448     0.824271     0.090433  Biso 1.000000     O
    O   1.0     0.681586     0.947992     0.932603  Biso 1.000000     O
    O   1.0     0.820564     0.949153     0.914967  Biso 1.000000     O
    O   1.0     0.817654     0.281511     0.565681  Biso 1.000000     O
    O   1.0     0.678246     0.275337     0.581355  Biso 1.000000     O
    O   1.0     0.813402     0.980172     0.061993  Biso 1.000000     O
    O   1.0     0.677665     0.945899     0.077582  Biso 1.000000     O
    O   1.0     0.679802     0.275661     0.426533  Biso 1.000000     O
    O   1.0     0.815004     0.312980     0.413341  Biso 1.000000     O
    O   1.0     0.347531     0.074682     0.074972  Biso 1.000000     O
    O   1.0     0.208553     0.073518     0.092607  Biso 1.000000     O
    O   1.0     0.211464     0.741160     0.441892  Biso 1.000000     O
    O   1.0     0.350871     0.747335     0.426219  Biso 1.000000     O
    O   1.0     0.215714     0.042500     0.945580  Biso 1.000000     O
    O   1.0     0.351452     0.076772     0.929992  Biso 1.000000     O
    O   1.0     0.349315     0.747010     0.581042  Biso 1.000000     O
    O   1.0     0.214113     0.709690     0.594233  Biso 1.000000     O
    O   1.0     0.358355     0.586054     0.428708  Biso 1.000000     O
    O   1.0     0.219363     0.584847     0.411164  Biso 1.000000     O
    O   1.0     0.200587     0.229839     0.061914  Biso 1.000000     O
    O   1.0     0.339998     0.235962     0.077554  Biso 1.000000     O
    O   1.0     0.226112     0.553779     0.565779  Biso 1.000000     O
    O   1.0     0.361859     0.588057     0.581312  Biso 1.000000     O
    O   1.0     0.338864     0.235756     0.930292  Biso 1.000000     O
    O   1.0     0.203669     0.198400     0.917141  Biso 1.000000     O
   Zn   1.0     0.654837     0.351879     0.503504  Biso 1.000000    Zn
   Zn   1.0     0.829748     0.377214     0.503791  Biso 1.000000    Zn
   Zn   1.0     0.665167     0.863140     0.000333  Biso 1.000000    Zn
   Zn   1.0     0.840689     0.888553     0.000000  Biso 1.000000    Zn
   Zn   1.0     0.363950     0.159532     0.000000  Biso 1.000000    Zn
   Zn   1.0     0.188428     0.134119     0.000020  Biso 1.000000    Zn
   Zn   1.0     0.374280     0.670793     0.504070  Biso 1.000000    Zn
   Zn   1.0     0.199369     0.645458     0.503782  Biso 1.000000    Zn
