#======================================================================

# CRYSTAL DATA

#----------------------------------------------------------------------

data_VESTA_phase_1


_pd_phase_name                         MOF
_cell_length_a                         18.65500
_cell_length_b                         17.34300
_cell_length_c                         20.28200
_cell_angle_alpha                      89.99900
_cell_angle_beta                       90.00900
_cell_angle_gamma                      98.64300
_symmetry_space_group_name_H-M         "P 1"
_symmetry_Int_Tables_number            1

loop_
_symmetry_equiv_pos_as_xyz
   "x, y, z"

loop_
   _atom_site_label
   _atom_site_occupancy
   _atom_site_fract_x
   _atom_site_fract_y
   _atom_site_fract_z
   _atom_site_adp_type
   _atom_site_B_iso_or_equiv
   _atom_site_type_symbol
    H   1.0     0.400192     0.052439     0.760800  Biso 1.000000     H
    H   1.0     0.900192     0.052439     0.760798  Biso 1.000000     H
    H   1.0     0.190617     0.931055     0.812591  Biso 1.000000     H
    H   1.0     0.690616     0.931056     0.812591  Biso 1.000000     H
    H   1.0     0.271189     0.152681     0.904509  Biso 1.000000     H
    H   1.0     0.771189     0.152681     0.904509  Biso 1.000000     H
    H   1.0     0.083126     0.968739     0.851456  Biso 1.000000     H
    H   1.0     0.583127     0.968738     0.851456  Biso 1.000000     H
    H   1.0     0.131980     0.922764     0.912184  Biso 1.000000     H
    H   1.0     0.631984     0.922762     0.912181  Biso 1.000000     H
    H   1.0     0.473341     0.017507     0.881311  Biso 1.000000     H
    H   1.0     0.973347     0.017506     0.881312  Biso 1.000000     H
    H   1.0     0.117063     0.960299     0.034476  Biso 1.000000     H
    H   1.0     0.617071     0.960294     0.034476  Biso 1.000000     H
    H   1.0     0.052501     0.119374     0.756527  Biso 1.000000     H
    H   1.0     0.552505     0.119376     0.756528  Biso 1.000000     H
    H   1.0     0.129576     0.067388     0.671176  Biso 1.000000     H
    H   1.0     0.629579     0.067391     0.671177  Biso 1.000000     H
    H   1.0     0.255792     0.296030     0.660005  Biso 1.000000     H
    H   1.0     0.755790     0.296035     0.660003  Biso 1.000000     H
    H   1.0     0.173940     0.339241     0.747669  Biso 1.000000     H
    H   1.0     0.673938     0.339244     0.747668  Biso 1.000000     H
    H   1.0     0.212233     0.161958     0.554978  Biso 1.000000     H
    H   1.0     0.712234     0.161965     0.554977  Biso 1.000000     H
    H   1.0     0.242205     0.089030     0.604664  Biso 1.000000     H
    H   1.0     0.742205     0.089036     0.604662  Biso 1.000000     H
    H   1.0     0.352719     0.131571     0.518307  Biso 1.000000     H
    H   1.0     0.852720     0.131575     0.518307  Biso 1.000000     H
    H   1.0     0.310906     0.212944     0.493301  Biso 1.000000     H
    H   1.0     0.810910     0.212952     0.493300  Biso 1.000000     H
    H   1.0     0.412805     0.305461     0.535673  Biso 1.000000     H
    H   1.0     0.912809     0.305466     0.535674  Biso 1.000000     H
    H   1.0     0.442754     0.239142     0.478620  Biso 1.000000     H
    H   1.0     0.942758     0.239146     0.478618  Biso 1.000000     H
    H   1.0     0.471750     0.200696     0.680408  Biso 1.000000     H
    H   1.0     0.971751     0.200700     0.680410  Biso 1.000000     H
    H   1.0     0.431356     0.283273     0.657661  Biso 1.000000     H
    H   1.0     0.931359     0.283278     0.657659  Biso 1.000000     H
    H   1.0     0.338605     0.178359     0.695671  Biso 1.000000     H
    H   1.0     0.838607     0.178367     0.695670  Biso 1.000000     H
    H   1.0     0.367969     0.110144     0.639977  Biso 1.000000     H
    H   1.0     0.867969     0.110149     0.639976  Biso 1.000000     H
    H   1.0     0.037430     0.329511     0.577929  Biso 1.000000     H
    H   1.0     0.537432     0.329510     0.577928  Biso 1.000000     H
    H   1.0     0.069717     0.253210     0.620802  Biso 1.000000     H
    H   1.0     0.569726     0.253213     0.620803  Biso 1.000000     H
    H   1.0     0.024361     0.138309     0.492406  Biso 1.000000     H
    H   1.0     0.524364     0.138308     0.492408  Biso 1.000000     H
    H   1.0     0.101964     0.121326     0.392326  Biso 1.000000     H
    H   1.0     0.601966     0.121324     0.392328  Biso 1.000000     H
    H   1.0     0.232940     0.331437     0.429000  Biso 1.000000     H
    H   1.0     0.732938     0.331440     0.428997  Biso 1.000000     H
    H   1.0     0.160443     0.358279     0.526743  Biso 1.000000     H
    H   1.0     0.660440     0.358281     0.526740  Biso 1.000000     H
    H   1.0     0.349762     0.447522     0.260794  Biso 1.000000     H
    H   1.0     0.849767     0.447525     0.260797  Biso 1.000000     H
    H   1.0     0.059314     0.569001     0.312598  Biso 1.000000     H
    H   1.0     0.559322     0.569004     0.312602  Biso 1.000000     H
    H   1.0     0.478847     0.347339     0.404509  Biso 1.000000     H
    H   1.0     0.978850     0.347340     0.404511  Biso 1.000000     H
    H   1.0     0.166816     0.531428     0.351494  Biso 1.000000     H
    H   1.0     0.666817     0.531433     0.351496  Biso 1.000000     H
    H   1.0     0.117946     0.577297     0.412264  Biso 1.000000     H
    H   1.0     0.617945     0.577299     0.412266  Biso 1.000000     H
    H   1.0     0.276593     0.482539     0.381303  Biso 1.000000     H
    H   1.0     0.776592     0.482540     0.381305  Biso 1.000000     H
    H   1.0     0.132974     0.539780     0.534503  Biso 1.000000     H
    H   1.0     0.632974     0.539781     0.534504  Biso 1.000000     H
    H   1.0     0.197610     0.380574     0.256462  Biso 1.000000     H
    H   1.0     0.697612     0.380574     0.256463  Biso 1.000000     H
    H   1.0     0.120583     0.432504     0.171012  Biso 1.000000     H
    H   1.0     0.620584     0.432504     0.171013  Biso 1.000000     H
    H   1.0    -0.005672     0.203873     0.159923  Biso 1.000000     H
    H   1.0     0.494329     0.203875     0.159924  Biso 1.000000     H
    H   1.0     0.076139     0.160722     0.247679  Biso 1.000000     H
    H   1.0     0.576138     0.160722     0.247681  Biso 1.000000     H
    H   1.0     0.037856     0.337786     0.054834  Biso 1.000000     H
    H   1.0     0.537867     0.337787     0.054832  Biso 1.000000     H
    H   1.0     0.007965     0.410820     0.104443  Biso 1.000000     H
    H   1.0     0.507971     0.410820     0.104441  Biso 1.000000     H
    H   1.0     0.397325     0.368159     0.018160  Biso 1.000000     H
    H   1.0     0.897325     0.368161     0.018164  Biso 1.000000     H
    H   1.0     0.439130     0.286755     0.993224  Biso 1.000000     H
    H   1.0     0.939130     0.286758     0.993223  Biso 1.000000     H
    H   1.0     0.337278     0.194295     0.035760  Biso 1.000000     H
    H   1.0     0.837278     0.194296     0.035760  Biso 1.000000     H
    H   1.0     0.307266     0.260513     0.978629  Biso 1.000000     H
    H   1.0     0.807267     0.260518     0.978629  Biso 1.000000     H
    H   1.0     0.278467     0.299280     0.180399  Biso 1.000000     H
    H   1.0     0.778468     0.299279     0.180400  Biso 1.000000     H
    H   1.0     0.318849     0.216676     0.157722  Biso 1.000000     H
    H   1.0     0.818850     0.216674     0.157720  Biso 1.000000     H
    H   1.0     0.411638     0.321659     0.195578  Biso 1.000000     H
    H   1.0     0.911639     0.321657     0.195581  Biso 1.000000     H
    H   1.0     0.382200     0.389783     0.139829  Biso 1.000000     H
    H   1.0     0.882201     0.389782     0.139830  Biso 1.000000     H
    H   1.0     0.212619     0.170359     0.078018  Biso 1.000000     H
    H   1.0     0.712620     0.170359     0.078019  Biso 1.000000     H
    H   1.0     0.180412     0.246740     0.120842  Biso 1.000000     H
    H   1.0     0.680411     0.246738     0.120842  Biso 1.000000     H
    H   1.0     0.225858     0.361469     0.992336  Biso 1.000000     H
    H   1.0     0.725855     0.361471     0.992340  Biso 1.000000     H
    H   1.0     0.148241     0.378475     0.892252  Biso 1.000000     H
    H   1.0     0.648238     0.378477     0.892256  Biso 1.000000     H
    H   1.0     0.017058     0.168536     0.929061  Biso 1.000000     H
    H   1.0     0.517059     0.168534     0.929060  Biso 1.000000     H
    H   1.0     0.089544     0.141688     0.026839  Biso 1.000000     H
    H   1.0     0.589545     0.141685     0.026838  Biso 1.000000     H
    H   1.0     0.099809     0.947573     0.239187  Biso 1.000000     H
    H   1.0     0.599809     0.947573     0.239186  Biso 1.000000     H
    H   1.0     0.309386     0.068955     0.187396  Biso 1.000000     H
    H   1.0     0.809385     0.068956     0.187396  Biso 1.000000     H
    H   1.0     0.228812     0.847331     0.095476  Biso 1.000000     H
    H   1.0     0.728812     0.847332     0.095476  Biso 1.000000     H
    H   1.0     0.416874     0.031274     0.148531  Biso 1.000000     H
    H   1.0     0.916875     0.031276     0.148531  Biso 1.000000     H
    H   1.0     0.368017     0.077250     0.087806  Biso 1.000000     H
    H   1.0     0.868021     0.077249     0.087803  Biso 1.000000     H
    H   1.0     0.026655     0.982509     0.118675  Biso 1.000000     H
    H   1.0     0.526661     0.982506     0.118676  Biso 1.000000     H
    H   1.0     0.382930     0.039719     0.965511  Biso 1.000000     H
    H   1.0     0.882939     0.039716     0.965511  Biso 1.000000     H
    H   1.0     0.447494     0.880639     0.243448  Biso 1.000000     H
    H   1.0     0.947491     0.880641     0.243445  Biso 1.000000     H
    H   1.0     0.370420     0.932625     0.328799  Biso 1.000000     H
    H   1.0     0.870418     0.932625     0.328797  Biso 1.000000     H
    H   1.0     0.244216     0.703978     0.339984  Biso 1.000000     H
    H   1.0     0.744216     0.703978     0.339982  Biso 1.000000     H
    H   1.0     0.326063     0.660768     0.252315  Biso 1.000000     H
    H   1.0     0.826065     0.660767     0.252316  Biso 1.000000     H
    H   1.0     0.287774     0.838045     0.445005  Biso 1.000000     H
    H   1.0     0.787773     0.838047     0.445005  Biso 1.000000     H
    H   1.0     0.257802     0.910977     0.395325  Biso 1.000000     H
    H   1.0     0.757802     0.910979     0.395323  Biso 1.000000     H
    H   1.0     0.147291     0.868439     0.481679  Biso 1.000000     H
    H   1.0     0.647289     0.868439     0.481680  Biso 1.000000     H
    H   1.0     0.189097     0.787057     0.506683  Biso 1.000000     H
    H   1.0     0.689098     0.787061     0.506682  Biso 1.000000     H
    H   1.0     0.087192     0.694551     0.464305  Biso 1.000000     H
    H   1.0     0.587195     0.694551     0.464308  Biso 1.000000     H
    H   1.0     0.057248     0.760870     0.521367  Biso 1.000000     H
    H   1.0     0.557250     0.760870     0.521365  Biso 1.000000     H
    H   1.0     0.028253     0.799332     0.319576  Biso 1.000000     H
    H   1.0     0.528254     0.799327     0.319578  Biso 1.000000     H
    H   1.0     0.068640     0.716746     0.342324  Biso 1.000000     H
    H   1.0     0.568643     0.716746     0.342322  Biso 1.000000     H
    H   1.0     0.161399     0.821654     0.304314  Biso 1.000000     H
    H   1.0     0.661399     0.821655     0.304313  Biso 1.000000     H
    H   1.0     0.132042     0.889874     0.360013  Biso 1.000000     H
    H   1.0     0.632039     0.889872     0.360009  Biso 1.000000     H
    H   1.0     0.462569     0.670511     0.422051  Biso 1.000000     H
    H   1.0     0.962573     0.670515     0.422050  Biso 1.000000     H
    H   1.0     0.430276     0.746813     0.379183  Biso 1.000000     H
    H   1.0     0.930287     0.746820     0.379183  Biso 1.000000     H
    H   1.0     0.475644     0.861707     0.507584  Biso 1.000000     H
    H   1.0     0.975645     0.861711     0.507584  Biso 1.000000     H
    H   1.0     0.398041     0.878687     0.607665  Biso 1.000000     H
    H   1.0     0.898041     0.878687     0.607665  Biso 1.000000     H
    H   1.0     0.267065     0.668576     0.570986  Biso 1.000000     H
    H   1.0     0.767066     0.668577     0.570984  Biso 1.000000     H
    H   1.0     0.339562     0.641739     0.473241  Biso 1.000000     H
    H   1.0     0.839564     0.641740     0.473240  Biso 1.000000     H
    H   1.0     0.150235     0.552485     0.739187  Biso 1.000000     H
    H   1.0     0.650240     0.552489     0.739191  Biso 1.000000     H
    H   1.0     0.440677     0.431009     0.687383  Biso 1.000000     H
    H   1.0     0.940686     0.431012     0.687387  Biso 1.000000     H
    H   1.0     0.021152     0.652673     0.595475  Biso 1.000000     H
    H   1.0     0.521155     0.652674     0.595476  Biso 1.000000     H
    H   1.0     0.333183     0.468582     0.648489  Biso 1.000000     H
    H   1.0     0.833184     0.468587     0.648491  Biso 1.000000     H
    H   1.0     0.382054     0.422717     0.587719  Biso 1.000000     H
    H   1.0     0.882054     0.422719     0.587721  Biso 1.000000     H
    H   1.0     0.223410     0.517479     0.618680  Biso 1.000000     H
    H   1.0     0.723408     0.517480     0.618682  Biso 1.000000     H
    H   1.0     0.367028     0.460238     0.465480  Biso 1.000000     H
    H   1.0     0.867028     0.460239     0.465482  Biso 1.000000     H
    H   1.0     0.302394     0.619435     0.743518  Biso 1.000000     H
    H   1.0     0.802395     0.619437     0.743522  Biso 1.000000     H
    H   1.0     0.379423     0.567502     0.828966  Biso 1.000000     H
    H   1.0     0.879424     0.567505     0.828971  Biso 1.000000     H
    H   1.0     0.505674     0.796133     0.840064  Biso 1.000000     H
    H   1.0     0.000000     0.796138     0.840064  Biso 1.000000     H
    H   1.0     0.423863     0.839289     0.752310  Biso 1.000000     H
    H   1.0     0.923863     0.839289     0.752310  Biso 1.000000     H
    H   1.0     0.462138     0.662215     0.945150  Biso 1.000000     H
    H   1.0     0.962149     0.662225     0.945152  Biso 1.000000     H
    H   1.0     0.492035     0.589184     0.895539  Biso 1.000000     H
    H   1.0     0.992039     0.589189     0.895543  Biso 1.000000     H
    H   1.0     0.102681     0.631848     0.981820  Biso 1.000000     H
    H   1.0     0.602682     0.631844     0.981821  Biso 1.000000     H
    H   1.0     0.060877     0.713252     0.006762  Biso 1.000000     H
    H   1.0     0.560876     0.713247     0.006760  Biso 1.000000     H
    H   1.0     0.162730     0.805711     0.964221  Biso 1.000000     H
    H   1.0     0.662727     0.805710     0.964224  Biso 1.000000     H
    H   1.0     0.192741     0.739490     0.021353  Biso 1.000000     H
    H   1.0     0.692741     0.739490     0.021354  Biso 1.000000     H
    H   1.0     0.221535     0.700723     0.819582  Biso 1.000000     H
    H   1.0     0.721538     0.700730     0.819582  Biso 1.000000     H
    H   1.0     0.181156     0.783330     0.842261  Biso 1.000000     H
    H   1.0     0.681154     0.783332     0.842262  Biso 1.000000     H
    H   1.0     0.088365     0.678347     0.804403  Biso 1.000000     H
    H   1.0     0.588367     0.678348     0.804404  Biso 1.000000     H
    H   1.0     0.117802     0.610223     0.860155  Biso 1.000000     H
    H   1.0     0.617806     0.610224     0.860152  Biso 1.000000     H
    H   1.0     0.287386     0.829646     0.921960  Biso 1.000000     H
    H   1.0     0.787383     0.829650     0.921964  Biso 1.000000     H
    H   1.0     0.319594     0.753265     0.879138  Biso 1.000000     H
    H   1.0     0.819593     0.753272     0.879140  Biso 1.000000     H
    H   1.0     0.274157     0.638533     0.007637  Biso 1.000000     H
    H   1.0     0.774156     0.638534     0.007638  Biso 1.000000     H
    H   1.0     0.351772     0.621528     0.107724  Biso 1.000000     H
    H   1.0     0.851771     0.621530     0.107724  Biso 1.000000     H
    H   1.0     0.482943     0.831478     0.070924  Biso 1.000000     H
    H   1.0     0.982942     0.831480     0.070925  Biso 1.000000     H
    H   1.0     0.410458     0.858324     0.973145  Biso 1.000000     H
    H   1.0     0.910455     0.858327     0.973148  Biso 1.000000     H
    C   1.0     0.401171     0.179097     0.842683  Biso 1.000000     C
    C   1.0     0.901174     0.179097     0.842684  Biso 1.000000     C
    C   1.0     0.342221     0.110044     0.833863  Biso 1.000000     C
    C   1.0     0.842222     0.110045     0.833863  Biso 1.000000     C
    C   1.0     0.350936     0.049840     0.789827  Biso 1.000000     C
    C   1.0     0.850936     0.049841     0.789826  Biso 1.000000     C
    C   1.0     0.296129     0.986131     0.782426  Biso 1.000000     C
    C   1.0     0.796129     0.986132     0.782425  Biso 1.000000     C
    C   1.0     0.307687     0.921723     0.735555  Biso 1.000000     C
    C   1.0     0.807687     0.921724     0.735554  Biso 1.000000     C
    C   1.0     0.231956     0.981696     0.819477  Biso 1.000000     C
    C   1.0     0.731956     0.981696     0.819476  Biso 1.000000     C
    C   1.0     0.223286     0.041672     0.863595  Biso 1.000000     C
    C   1.0     0.723287     0.041673     0.863593  Biso 1.000000     C
    C   1.0     0.278233     0.105907     0.870429  Biso 1.000000     C
    C   1.0     0.778234     0.105908     0.870429  Biso 1.000000     C
    C   1.0     0.107546     0.975443     0.901069  Biso 1.000000     C
    C   1.0     0.607550     0.975441     0.901068  Biso 1.000000     C
    C   1.0     0.051501     0.987121     0.951909  Biso 1.000000     C
    C   1.0     0.551508     0.987117     0.951911  Biso 1.000000     C
    C   1.0     0.485182     0.009381     0.933345  Biso 1.000000     C
    C   1.0     0.985192     0.009381     0.933345  Biso 1.000000     C
    C   1.0     0.065778     0.977750     0.019096  Biso 1.000000     C
    C   1.0     0.565787     0.977747     0.019097  Biso 1.000000     C
    C   1.0     0.098496     0.156330     0.734164  Biso 1.000000     C
    C   1.0     0.598499     0.156332     0.734164  Biso 1.000000     C
    C   1.0     0.141210     0.128356     0.686250  Biso 1.000000     C
    C   1.0     0.641212     0.128359     0.686250  Biso 1.000000     C
    C   1.0     0.198081     0.178902     0.657295  Biso 1.000000     C
    C   1.0     0.698082     0.178906     0.657294  Biso 1.000000     C
    C   1.0     0.210993     0.255699     0.680633  Biso 1.000000     C
    C   1.0     0.710992     0.255704     0.680631  Biso 1.000000     C
    C   1.0     0.166454     0.279589     0.728998  Biso 1.000000     C
    C   1.0     0.666454     0.279592     0.728997  Biso 1.000000     C
    C   1.0     0.241626     0.152938     0.600894  Biso 1.000000     C
    C   1.0     0.741628     0.152945     0.600893  Biso 1.000000     C
    C   1.0     0.346150     0.192582     0.530792  Biso 1.000000     C
    C   1.0     0.846153     0.192587     0.530792  Biso 1.000000     C
    C   1.0     0.419918     0.243453     0.528099  Biso 1.000000     C
    C   1.0     0.919922     0.243457     0.528098  Biso 1.000000     C
    C   1.0     0.436365     0.222352     0.643754  Biso 1.000000     C
    C   1.0     0.936369     0.222356     0.643753  Biso 1.000000     C
    C   1.0     0.362227     0.172556     0.646615  Biso 1.000000     C
    C   1.0     0.862228     0.172561     0.646613  Biso 1.000000     C
    C   1.0     0.040145     0.265805     0.575992  Biso 1.000000     C
    C   1.0     0.540152     0.265804     0.575994  Biso 1.000000     C
    C   1.0     0.085486     0.250134     0.517325  Biso 1.000000     C
    C   1.0     0.585488     0.250133     0.517324  Biso 1.000000     C
    C   1.0     0.070303     0.182167     0.479382  Biso 1.000000     C
    C   1.0     0.570307     0.182165     0.479383  Biso 1.000000     C
    C   1.0     0.112701     0.172073     0.424598  Biso 1.000000     C
    C   1.0     0.612702     0.172073     0.424596  Biso 1.000000     C
    C   1.0     0.186392     0.290037     0.444633  Biso 1.000000     C
    C   1.0     0.686391     0.290039     0.444631  Biso 1.000000     C
    C   1.0     0.145794     0.304177     0.499335  Biso 1.000000     C
    C   1.0     0.645794     0.304178     0.499334  Biso 1.000000     C
    C   1.0     0.348845     0.320906     0.342706  Biso 1.000000     C
    C   1.0     0.848848     0.320909     0.342708  Biso 1.000000     C
    C   1.0     0.407781     0.389955     0.333863  Biso 1.000000     C
    C   1.0     0.907787     0.389958     0.333865  Biso 1.000000     C
    C   1.0     0.399032     0.450149     0.289821  Biso 1.000000     C
    C   1.0     0.899038     0.450152     0.289822  Biso 1.000000     C
    C   1.0     0.453822     0.513892     0.282423  Biso 1.000000     C
    C   1.0     0.953828     0.513893     0.282424  Biso 1.000000     C
    C   1.0     0.442247     0.578305     0.235554  Biso 1.000000     C
    C   1.0     0.942253     0.578304     0.235554  Biso 1.000000     C
    C   1.0     0.017993     0.518346     0.319481  Biso 1.000000     C
    C   1.0     0.518003     0.518347     0.319482  Biso 1.000000     C
    C   1.0     0.026696     0.458357     0.363592  Biso 1.000000     C
    C   1.0     0.526705     0.458358     0.363594  Biso 1.000000     C
    C   1.0     0.471780     0.394109     0.370429  Biso 1.000000     C
    C   1.0     0.971786     0.394109     0.370429  Biso 1.000000     C
    C   1.0     0.142415     0.524655     0.401104  Biso 1.000000     C
    C   1.0     0.642417     0.524659     0.401107  Biso 1.000000     C
    C   1.0     0.198483     0.512950     0.451930  Biso 1.000000     C
    C   1.0     0.698485     0.512957     0.451932  Biso 1.000000     C
    C   1.0     0.264781     0.490647     0.433342  Biso 1.000000     C
    C   1.0     0.764781     0.490649     0.433344  Biso 1.000000     C
    C   1.0     0.184238     0.522304     0.519111  Biso 1.000000     C
    C   1.0     0.684238     0.522305     0.519113  Biso 1.000000     C
    C   1.0     0.151618     0.343612     0.234090  Biso 1.000000     C
    C   1.0     0.651619     0.343612     0.234091  Biso 1.000000     C
    C   1.0     0.108928     0.371552     0.186126  Biso 1.000000     C
    C   1.0     0.608931     0.371552     0.186126  Biso 1.000000     C
    C   1.0     0.052059     0.320989     0.157171  Biso 1.000000     C
    C   1.0     0.552063     0.320989     0.157172  Biso 1.000000     C
    C   1.0     0.039126     0.244212     0.180554  Biso 1.000000     C
    C   1.0     0.539128     0.244212     0.180554  Biso 1.000000     C
    C   1.0     0.083638     0.220356     0.228967  Biso 1.000000     C
    C   1.0     0.583639     0.220356     0.228968  Biso 1.000000     C
    C   1.0     0.008505     0.346901     0.100743  Biso 1.000000     C
    C   1.0     0.508514     0.346901     0.100741  Biso 1.000000     C
    C   1.0     0.403918     0.307174     0.030718  Biso 1.000000     C
    C   1.0     0.903921     0.307176     0.030719  Biso 1.000000     C
    C   1.0     0.330155     0.256291     0.028112  Biso 1.000000     C
    C   1.0     0.830157     0.256292     0.028112  Biso 1.000000     C
    C   1.0     0.313814     0.277572     0.143749  Biso 1.000000     C
    C   1.0     0.813815     0.277571     0.143750  Biso 1.000000     C
    C   1.0     0.387952     0.327382     0.146529  Biso 1.000000     C
    C   1.0     0.887954     0.327382     0.146531  Biso 1.000000     C
    C   1.0     0.209950     0.234074     0.076041  Biso 1.000000     C
    C   1.0     0.709949     0.234074     0.076041  Biso 1.000000     C
    C   1.0     0.164612     0.249739     0.017352  Biso 1.000000     C
    C   1.0     0.664610     0.249738     0.017353  Biso 1.000000     C
    C   1.0     0.179863     0.317656     0.979344  Biso 1.000000     C
    C   1.0     0.679862     0.317657     0.979346  Biso 1.000000     C
    C   1.0     0.137462     0.327758     0.924551  Biso 1.000000     C
    C   1.0     0.637459     0.327760     0.924555  Biso 1.000000     C
    C   1.0     0.063652     0.209897     0.944666  Biso 1.000000     C
    C   1.0     0.563652     0.209897     0.944667  Biso 1.000000     C
    C   1.0     0.104244     0.195752    -0.000606  Biso 1.000000     C
    C   1.0     0.604245     0.195749    -0.000607  Biso 1.000000     C
    C   1.0     0.098830     0.820919     0.157302  Biso 1.000000     C
    C   1.0     0.598834     0.820918     0.157304  Biso 1.000000     C
    C   1.0     0.157781     0.889970     0.166123  Biso 1.000000     C
    C   1.0     0.657783     0.889971     0.166122  Biso 1.000000     C
    C   1.0     0.149065     0.950173     0.210160  Biso 1.000000     C
    C   1.0     0.649065     0.950174     0.210159  Biso 1.000000     C
    C   1.0     0.203874     0.013881     0.217561  Biso 1.000000     C
    C   1.0     0.703874     0.013882     0.217561  Biso 1.000000     C
    C   1.0     0.192317     0.078289     0.264433  Biso 1.000000     C
    C   1.0     0.692318     0.078290     0.264433  Biso 1.000000     C
    C   1.0     0.268046     0.018316     0.180510  Biso 1.000000     C
    C   1.0     0.768046     0.018316     0.180510  Biso 1.000000     C
    C   1.0     0.276715     0.958339     0.136392  Biso 1.000000     C
    C   1.0     0.776717     0.958340     0.136391  Biso 1.000000     C
    C   1.0     0.221769     0.894104     0.129557  Biso 1.000000     C
    C   1.0     0.721770     0.894107     0.129555  Biso 1.000000     C
    C   1.0     0.392452     0.024572     0.098919  Biso 1.000000     C
    C   1.0     0.892456     0.024572     0.098918  Biso 1.000000     C
    C   1.0     0.448494     0.012895     0.048076  Biso 1.000000     C
    C   1.0     0.948501     0.012894     0.048077  Biso 1.000000     C
    C   1.0     0.014810     0.990634     0.066642  Biso 1.000000     C
    C   1.0     0.514819     0.990631     0.066642  Biso 1.000000     C
    C   1.0     0.434215     0.022266     0.980889  Biso 1.000000     C
    C   1.0     0.934224     0.022265     0.980890  Biso 1.000000     C
    C   1.0     0.401502     0.843682     0.265813  Biso 1.000000     C
    C   1.0     0.901500     0.843683     0.265811  Biso 1.000000     C
    C   1.0     0.358787     0.871657     0.313725  Biso 1.000000     C
    C   1.0     0.858787     0.871656     0.313727  Biso 1.000000     C
    C   1.0     0.301924     0.821107     0.342689  Biso 1.000000     C
    C   1.0     0.801920     0.821108     0.342686  Biso 1.000000     C
    C   1.0     0.289009     0.744311     0.319350  Biso 1.000000     C
    C   1.0     0.789012     0.744309     0.319352  Biso 1.000000     C
    C   1.0     0.333551     0.720420     0.270987  Biso 1.000000     C
    C   1.0     0.833549     0.720420     0.270984  Biso 1.000000     C
    C   1.0     0.258379     0.847068     0.399090  Biso 1.000000     C
    C   1.0     0.758378     0.847070     0.399090  Biso 1.000000     C
    C   1.0     0.153854     0.807426     0.469194  Biso 1.000000     C
    C   1.0     0.653855     0.807428     0.469192  Biso 1.000000     C
    C   1.0     0.080083     0.756560     0.471887  Biso 1.000000     C
    C   1.0     0.580086     0.756560     0.471885  Biso 1.000000     C
    C   1.0     0.063635     0.777669     0.356230  Biso 1.000000     C
    C   1.0     0.563638     0.777668     0.356231  Biso 1.000000     C
    C   1.0     0.137776     0.827461     0.353370  Biso 1.000000     C
    C   1.0     0.637779     0.827459     0.353371  Biso 1.000000     C
    C   1.0     0.459851     0.734217     0.423991  Biso 1.000000     C
    C   1.0     0.959858     0.734221     0.423992  Biso 1.000000     C
    C   1.0     0.414516     0.749885     0.482662  Biso 1.000000     C
    C   1.0     0.914520     0.749886     0.482662  Biso 1.000000     C
    C   1.0     0.429700     0.817850     0.520607  Biso 1.000000     C
    C   1.0     0.929703     0.817851     0.520606  Biso 1.000000     C
    C   1.0     0.387304     0.827941     0.575393  Biso 1.000000     C
    C   1.0     0.887304     0.827943     0.575390  Biso 1.000000     C
    C   1.0     0.313613     0.709977     0.555354  Biso 1.000000     C
    C   1.0     0.813613     0.709979     0.555352  Biso 1.000000     C
    C   1.0     0.354209     0.695840     0.500650  Biso 1.000000     C
    C   1.0     0.854212     0.695841     0.500650  Biso 1.000000     C
    C   1.0     0.151156     0.679107     0.657280  Biso 1.000000     C
    C   1.0     0.651160     0.679109     0.657280  Biso 1.000000     C
    C   1.0     0.092217     0.610057     0.666121  Biso 1.000000     C
    C   1.0     0.592223     0.610058     0.666123  Biso 1.000000     C
    C   1.0     0.100965     0.549859     0.710161  Biso 1.000000     C
    C   1.0     0.600971     0.549863     0.710164  Biso 1.000000     C
    C   1.0     0.046173     0.486119     0.717561  Biso 1.000000     C
    C   1.0     0.546180     0.486121     0.717562  Biso 1.000000     C
    C   1.0     0.057752     0.421711     0.764432  Biso 1.000000     C
    C   1.0     0.557757     0.421709     0.764431  Biso 1.000000     C
    C   1.0     0.481998     0.481665     0.680504  Biso 1.000000     C
    C   1.0     0.982007     0.481667     0.680505  Biso 1.000000     C
    C   1.0     0.473297     0.541657     0.636393  Biso 1.000000     C
    C   1.0     0.973305     0.541657     0.636394  Biso 1.000000     C
    C   1.0     0.028218     0.605902     0.629555  Biso 1.000000     C
    C   1.0     0.528224     0.605904     0.629556  Biso 1.000000     C
    C   1.0     0.357584     0.475357     0.598878  Biso 1.000000     C
    C   1.0     0.857586     0.475361     0.598881  Biso 1.000000     C
    C   1.0     0.301516     0.487061     0.548052  Biso 1.000000     C
    C   1.0     0.801518     0.487067     0.548054  Biso 1.000000     C
    C   1.0     0.235220     0.509369     0.566641  Biso 1.000000     C
    C   1.0     0.735220     0.509371     0.566643  Biso 1.000000     C
    C   1.0     0.315763     0.477712     0.480872  Biso 1.000000     C
    C   1.0     0.815763     0.477714     0.480874  Biso 1.000000     C
    C   1.0     0.348386     0.656397     0.765891  Biso 1.000000     C
    C   1.0     0.848387     0.656399     0.765896  Biso 1.000000     C
    C   1.0     0.391075     0.628455     0.813855  Biso 1.000000     C
    C   1.0     0.891078     0.628457     0.813858  Biso 1.000000     C
    C   1.0     0.447942     0.679017     0.842812  Biso 1.000000     C
    C   1.0     0.947945     0.679021     0.842815  Biso 1.000000     C
    C   1.0     0.460876     0.755796     0.819433  Biso 1.000000     C
    C   1.0     0.960879     0.755798     0.819433  Biso 1.000000     C
    C   1.0     0.416365     0.779654     0.771020  Biso 1.000000     C
    C   1.0     0.916365     0.779656     0.771022  Biso 1.000000     C
    C   1.0     0.491492     0.653103     0.899241  Biso 1.000000     C
    C   1.0     0.991500     0.653108     0.899242  Biso 1.000000     C
    C   1.0     0.096085     0.692832     0.969264  Biso 1.000000     C
    C   1.0     0.596087     0.692829     0.969264  Biso 1.000000     C
    C   1.0     0.169851     0.743715     0.971870  Biso 1.000000     C
    C   1.0     0.669850     0.743714     0.971872  Biso 1.000000     C
    C   1.0     0.186190     0.722433     0.856232  Biso 1.000000     C
    C   1.0     0.686191     0.722436     0.856232  Biso 1.000000     C
    C   1.0     0.112050     0.672624     0.853452  Biso 1.000000     C
    C   1.0     0.612053     0.672624     0.853453  Biso 1.000000     C
    C   1.0     0.290057     0.765931     0.923939  Biso 1.000000     C
    C   1.0     0.790055     0.765935     0.923941  Biso 1.000000     C
    C   1.0     0.335397     0.750268     0.982626  Biso 1.000000     C
    C   1.0     0.835396     0.750270     0.982628  Biso 1.000000     C
    C   1.0     0.320148     0.682349     0.020633  Biso 1.000000     C
    C   1.0     0.820146     0.682352     0.020635  Biso 1.000000     C
    C   1.0     0.362550     0.672247     0.075426  Biso 1.000000     C
    C   1.0     0.862550     0.672248     0.075426  Biso 1.000000     C
    C   1.0     0.436352     0.790113     0.055317  Biso 1.000000     C
    C   1.0     0.936351     0.790115     0.055318  Biso 1.000000     C
    C   1.0     0.395760     0.804259     0.000000  Biso 1.000000     C
    C   1.0     0.895757     0.804262     0.000000  Biso 1.000000     C
    N   1.0     0.109867     0.231217     0.755030  Biso 1.000000     N
    N   1.0     0.609869     0.231219     0.755030  Biso 1.000000     N
    N   1.0     0.313997     0.197428     0.596288  Biso 1.000000     N
    N   1.0     0.813998     0.197436     0.596287  Biso 1.000000     N
    N   1.0     0.468712     0.218887     0.578063  Biso 1.000000     N
    N   1.0     0.968717     0.218894     0.578062  Biso 1.000000     N
    N   1.0     0.169779     0.225669     0.406777  Biso 1.000000     N
    N   1.0     0.669780     0.225670     0.406776  Biso 1.000000     N
    N   1.0     0.140214     0.268747     0.255008  Biso 1.000000     N
    N   1.0     0.640215     0.268747     0.255009  Biso 1.000000     N
    N   1.0     0.436128     0.302434     0.096208  Biso 1.000000     N
    N   1.0     0.936132     0.302438     0.096209  Biso 1.000000     N
    N   1.0     0.281413     0.280940     0.078062  Biso 1.000000     N
    N   1.0     0.781415     0.280939     0.078063  Biso 1.000000     N
    N   1.0     0.080317     0.274219     0.906767  Biso 1.000000     N
    N   1.0     0.580317     0.274219     0.906769  Biso 1.000000     N
    N   1.0     0.390131     0.768795     0.244948  Biso 1.000000     N
    N   1.0     0.890133     0.768794     0.244950  Biso 1.000000     N
    N   1.0     0.186005     0.802586     0.403697  Biso 1.000000     N
    N   1.0     0.686008     0.802581     0.403696  Biso 1.000000     N
    N   1.0     0.031289     0.781126     0.421923  Biso 1.000000     N
    N   1.0     0.531293     0.781129     0.421922  Biso 1.000000     N
    N   1.0     0.330226     0.774344     0.593211  Biso 1.000000     N
    N   1.0     0.830229     0.774344     0.593211  Biso 1.000000     N
    N   1.0     0.359790     0.731263     0.744977  Biso 1.000000     N
    N   1.0     0.859791     0.731264     0.744978  Biso 1.000000     N
    N   1.0     0.063873     0.697569     0.903774  Biso 1.000000     N
    N   1.0     0.563877     0.697571     0.903775  Biso 1.000000     N
    N   1.0     0.218591     0.719066     0.921919  Biso 1.000000     N
    N   1.0     0.718591     0.719069     0.921920  Biso 1.000000     N
    N   1.0     0.419690     0.725790     0.093214  Biso 1.000000     N
    N   1.0     0.919689     0.725791     0.093215  Biso 1.000000     N
    O   1.0     0.459952     0.176444     0.808136  Biso 1.000000     O
    O   1.0     0.959955     0.176445     0.808136  Biso 1.000000     O
    O   1.0     0.393175     0.233255     0.880991  Biso 1.000000     O
    O   1.0     0.893178     0.233255     0.880992  Biso 1.000000     O
    O   1.0     0.365314     0.926551     0.703082  Biso 1.000000     O
    O   1.0     0.865316     0.926550     0.703083  Biso 1.000000     O
    O   1.0     0.255658     0.862665     0.733261  Biso 1.000000     O
    O   1.0     0.755659     0.862664     0.733261  Biso 1.000000     O
    O   1.0     0.163088     0.043090     0.902582  Biso 1.000000     O
    O   1.0     0.663090     0.043088     0.902582  Biso 1.000000     O
    O   1.0     0.290060     0.323542     0.308144  Biso 1.000000     O
    O   1.0     0.790065     0.323546     0.308144  Biso 1.000000     O
    O   1.0     0.356859     0.266750     0.381014  Biso 1.000000     O
    O   1.0     0.856863     0.266751     0.381013  Biso 1.000000     O
    O   1.0     0.384627     0.573469     0.203058  Biso 1.000000     O
    O   1.0     0.884631     0.573469     0.203060  Biso 1.000000     O
    O   1.0     0.494286     0.637358     0.233262  Biso 1.000000     O
    O   1.0     0.994289     0.637359     0.233262  Biso 1.000000     O
    O   1.0     0.086911     0.456955     0.402577  Biso 1.000000     O
    O   1.0     0.586918     0.456956     0.402580  Biso 1.000000     O
    O   1.0     0.040050     0.823571     0.191851  Biso 1.000000     O
    O   1.0     0.540054     0.823572     0.191851  Biso 1.000000     O
    O   1.0     0.106826     0.766758     0.118997  Biso 1.000000     O
    O   1.0     0.606828     0.766759     0.118996  Biso 1.000000     O
    O   1.0     0.134691     0.073464     0.296907  Biso 1.000000     O
    O   1.0     0.634694     0.073463     0.296909  Biso 1.000000     O
    O   1.0     0.244348     0.137346     0.266726  Biso 1.000000     O
    O   1.0     0.744350     0.137346     0.266726  Biso 1.000000     O
    O   1.0     0.336913     0.956924     0.097405  Biso 1.000000     O
    O   1.0     0.836916     0.956924     0.097405  Biso 1.000000     O
    O   1.0     0.209941     0.676470     0.691842  Biso 1.000000     O
    O   1.0     0.709945     0.676474     0.691842  Biso 1.000000     O
    O   1.0     0.143141     0.733261     0.618969  Biso 1.000000     O
    O   1.0     0.643144     0.733263     0.618970  Biso 1.000000     O
    O   1.0     0.115377     0.426545     0.796921  Biso 1.000000     O
    O   1.0     0.615380     0.426546     0.796924  Biso 1.000000     O
    O   1.0     0.005719     0.362653     0.766725  Biso 1.000000     O
    O   1.0     0.505721     0.362654     0.766726  Biso 1.000000     O
    O   1.0     0.413084     0.543059     0.597407  Biso 1.000000     O
    O   1.0     0.913091     0.543061     0.597409  Biso 1.000000     O
   Zn   1.0     0.031478     0.273375     0.816360  Biso 1.000000    Zn
   Zn   1.0     0.531485     0.273377     0.816360  Biso 1.000000    Zn
   Zn   1.0     0.218556     0.226604     0.316367  Biso 1.000000    Zn
   Zn   1.0     0.718562     0.226606     0.316367  Biso 1.000000    Zn
   Zn   1.0     0.468530     0.726637     0.183625  Biso 1.000000    Zn
   Zn   1.0     0.968536     0.726639     0.183625  Biso 1.000000    Zn
   Zn   1.0     0.281454     0.773408     0.683621  Biso 1.000000    Zn
   Zn   1.0     0.781459     0.773409     0.683621  Biso 1.000000    Zn
