#======================================================================

# CRYSTAL DATA

#----------------------------------------------------------------------

data_VESTA_phase_1


_pd_phase_name                         MOF
_cell_length_a                         18.94200
_cell_length_b                         18.96000
_cell_length_c                         18.96500
_cell_angle_alpha                      59.98300
_cell_angle_beta                       60.02300
_cell_angle_gamma                      60.01700
_symmetry_space_group_name_H-M         "P 1"
_symmetry_Int_Tables_number            1

loop_
_symmetry_equiv_pos_as_xyz
   "x, y, z"

loop_
   _atom_site_label
   _atom_site_occupancy
   _atom_site_fract_x
   _atom_site_fract_y
   _atom_site_fract_z
   _atom_site_adp_type
   _atom_site_B_iso_or_equiv
   _atom_site_type_symbol
    H   1.0     0.766624     0.993488     0.472877  Biso 1.000000     H
    H   1.0     0.993804     0.766616     0.766886  Biso 1.000000     H
    H   1.0     0.473623     0.766711     0.766125  Biso 1.000000     H
    H   1.0     0.766919     0.473302     0.993306  Biso 1.000000     H
    H   1.0     0.766500     0.473142     0.766593  Biso 1.000000     H
    H   1.0     0.993899     0.766564     0.472894  Biso 1.000000     H
    H   1.0     0.473559     0.766213     0.993406  Biso 1.000000     H
    H   1.0     0.766978     0.994010     0.766494  Biso 1.000000     H
    H   1.0     0.766616     0.767141     0.993807  Biso 1.000000     H
    H   1.0     0.993747     0.473762     0.766037  Biso 1.000000     H
    H   1.0     0.473922     0.993454     0.766482  Biso 1.000000     H
    H   1.0     0.766824     0.766464     0.472594  Biso 1.000000     H
    H   1.0     0.005991     0.233678     0.527073  Biso 1.000000     H
    H   1.0     0.233347     0.006059     0.232926  Biso 1.000000     H
    H   1.0     0.233277     0.526800     0.233793  Biso 1.000000     H
    H   1.0     0.526425     0.233228     0.006488  Biso 1.000000     H
    H   1.0     0.526365     0.233704     0.233280  Biso 1.000000     H
    H   1.0     0.233011     0.006497     0.527022  Biso 1.000000     H
    H   1.0     0.233485     0.526712     0.006732  Biso 1.000000     H
    H   1.0     0.006155     0.233082     0.233429  Biso 1.000000     H
    H   1.0     0.232926     0.233402     0.006088  Biso 1.000000     H
    H   1.0     0.526025     0.006488     0.233913  Biso 1.000000     H
    H   1.0     0.006333     0.526248     0.233673  Biso 1.000000     H
    H   1.0     0.233335     0.233215     0.527395  Biso 1.000000     H
    C   1.0     0.664890     0.929124     0.476143  Biso 1.000000     C
    C   1.0     0.757476     0.885160     0.471597  Biso 1.000000     C
    C   1.0     0.929254     0.665043     0.929634  Biso 1.000000     C
    C   1.0     0.885394     0.757634     0.885562  Biso 1.000000     C
    C   1.0     0.477146     0.929489     0.664553  Biso 1.000000     C
    C   1.0     0.472686     0.885286     0.757044  Biso 1.000000     C
    C   1.0     0.929678     0.477053     0.928661  Biso 1.000000     C
    C   1.0     0.885545     0.472433     0.884833  Biso 1.000000     C
    C   1.0     0.664915     0.476474     0.929375  Biso 1.000000     C
    C   1.0     0.757446     0.472120     0.885157  Biso 1.000000     C
    C   1.0     0.929354     0.929174     0.476549  Biso 1.000000     C
    C   1.0     0.885431     0.885216     0.471806  Biso 1.000000     C
    C   1.0     0.476944     0.664673     0.928867  Biso 1.000000     C
    C   1.0     0.472529     0.757180     0.884914  Biso 1.000000     C
    C   1.0     0.929598     0.929212     0.664766  Biso 1.000000     C
    C   1.0     0.885592     0.885467     0.757401  Biso 1.000000     C
    C   1.0     0.664942     0.929900     0.929112  Biso 1.000000     C
    C   1.0     0.757544     0.885795     0.885318  Biso 1.000000     C
    C   1.0     0.929225     0.476873     0.664620  Biso 1.000000     C
    C   1.0     0.885285     0.472347     0.757082  Biso 1.000000     C
    C   1.0     0.477017     0.928826     0.929395  Biso 1.000000     C
    C   1.0     0.472630     0.884985     0.885156  Biso 1.000000     C
    C   1.0     0.929657     0.664759     0.476224  Biso 1.000000     C
    C   1.0     0.885559     0.757276     0.471628  Biso 1.000000     C
    C   1.0     0.070527     0.335174     0.523819  Biso 1.000000     C
    C   1.0     0.114488     0.242673     0.528368  Biso 1.000000     C
    C   1.0     0.334963     0.070698     0.070208  Biso 1.000000     C
    C   1.0     0.242380     0.114556     0.114290  Biso 1.000000     C
    C   1.0     0.070509     0.523060     0.335451  Biso 1.000000     C
    C   1.0     0.114614     0.527614     0.242978  Biso 1.000000     C
    C   1.0     0.522899     0.070501     0.071140  Biso 1.000000     C
    C   1.0     0.527323     0.114650     0.115046  Biso 1.000000     C
    C   1.0     0.523095     0.335238     0.070396  Biso 1.000000     C
    C   1.0     0.527464     0.242743     0.114678  Biso 1.000000     C
    C   1.0     0.070189     0.071202     0.523300  Biso 1.000000     C
    C   1.0     0.114297     0.114932     0.528110  Biso 1.000000     C
    C   1.0     0.335197     0.523444     0.071134  Biso 1.000000     C
    C   1.0     0.242655     0.527840     0.115101  Biso 1.000000     C
    C   1.0     0.070821     0.070356     0.335064  Biso 1.000000     C
    C   1.0     0.114592     0.114377     0.242451  Biso 1.000000     C
    C   1.0     0.070237     0.335136     0.070802  Biso 1.000000     C
    C   1.0     0.114316     0.242509     0.114586  Biso 1.000000     C
    C   1.0     0.522813     0.071025     0.335343  Biso 1.000000     C
    C   1.0     0.527284     0.114944     0.242852  Biso 1.000000     C
    C   1.0     0.070800     0.523085     0.070905  Biso 1.000000     C
    C   1.0     0.114735     0.527606     0.114998  Biso 1.000000     C
    C   1.0     0.335010     0.070498     0.523785  Biso 1.000000     C
    C   1.0     0.242418     0.114641     0.528347  Biso 1.000000     C
    C   1.0     0.800194     0.927688     0.471653  Biso 1.000000     C
    C   1.0     0.928004     0.800256     0.800321  Biso 1.000000     C
    C   1.0     0.472520     0.800084     0.799696  Biso 1.000000     C
    C   1.0     0.800340     0.472176     0.927495  Biso 1.000000     C
    C   1.0     0.800079     0.472089     0.799975  Biso 1.000000     C
    C   1.0     0.928037     0.800050     0.471666  Biso 1.000000     C
    C   1.0     0.472470     0.799798     0.927553  Biso 1.000000     C
    C   1.0     0.800410     0.928163     0.800083  Biso 1.000000     C
    C   1.0     0.800200     0.800559     0.927972  Biso 1.000000     C
    C   1.0     0.927924     0.472432     0.799657  Biso 1.000000     C
    C   1.0     0.472662     0.927640     0.799920  Biso 1.000000     C
    C   1.0     0.800307     0.799981     0.471490  Biso 1.000000     C
    C   1.0     0.071854     0.200076     0.528296  Biso 1.000000     C
    C   1.0     0.199758     0.071922     0.199521  Biso 1.000000     C
    C   1.0     0.199825     0.527867     0.200277  Biso 1.000000     C
    C   1.0     0.527506     0.199839     0.072343  Biso 1.000000     C
    C   1.0     0.527462     0.200134     0.199909  Biso 1.000000     C
    C   1.0     0.199540     0.072290     0.528267  Biso 1.000000     C
    C   1.0     0.199946     0.527827     0.072547  Biso 1.000000     C
    C   1.0     0.071947     0.199619     0.199805  Biso 1.000000     C
    C   1.0     0.199501     0.199811     0.071914  Biso 1.000000     C
    C   1.0     0.527295     0.072297     0.200270  Biso 1.000000     C
    C   1.0     0.072159     0.527568     0.200195  Biso 1.000000     C
    C   1.0     0.199743     0.199814     0.528487  Biso 1.000000     C
    O   1.0     0.628670     0.006031     0.478668  Biso 1.000000     O
    O   1.0     0.006171     0.628721     0.886518  Biso 1.000000     O
    O   1.0     0.479442     0.886512     0.628271  Biso 1.000000     O
    O   1.0     0.886572     0.479525     0.005554  Biso 1.000000     O
    O   1.0     0.628458     0.478923     0.886420  Biso 1.000000     O
    O   1.0     0.006286     0.885994     0.479187  Biso 1.000000     O
    O   1.0     0.479556     0.628353     0.005747  Biso 1.000000     O
    O   1.0     0.886467     0.006115     0.628369  Biso 1.000000     O
    O   1.0     0.628527     0.886774     0.005979  Biso 1.000000     O
    O   1.0     0.006159     0.479502     0.628346  Biso 1.000000     O
    O   1.0     0.479580     0.005756     0.886365  Biso 1.000000     O
    O   1.0     0.886547     0.628378     0.478773  Biso 1.000000     O
    O   1.0     0.993580     0.371419     0.521219  Biso 1.000000     O
    O   1.0     0.371287     0.993712     0.113266  Biso 1.000000     O
    O   1.0     0.113589     0.520667     0.371750  Biso 1.000000     O
    O   1.0     0.520452     0.113625     0.994199  Biso 1.000000     O
    O   1.0     0.520759     0.371609     0.113311  Biso 1.000000     O
    O   1.0     0.113306     0.994331     0.520657  Biso 1.000000     O
    O   1.0     0.371448     0.520848     0.994287  Biso 1.000000     O
    O   1.0     0.993944     0.113515     0.371416  Biso 1.000000     O
    O   1.0     0.113384     0.371606     0.993983  Biso 1.000000     O
    O   1.0     0.520147     0.994137     0.371712  Biso 1.000000     O
    O   1.0     0.993859     0.520476     0.113982  Biso 1.000000     O
    O   1.0     0.371508     0.113517     0.521191  Biso 1.000000     O
    O   1.0     0.371137     0.993615     0.521221  Biso 1.000000     O
    O   1.0     0.993353     0.371339     0.114060  Biso 1.000000     O
    O   1.0     0.520470     0.114149     0.371499  Biso 1.000000     O
    O   1.0     0.114012     0.520647     0.994008  Biso 1.000000     O
    O   1.0     0.371530     0.520976     0.114215  Biso 1.000000     O
    O   1.0     0.993297     0.114517     0.520578  Biso 1.000000     O
    O   1.0     0.520502     0.371397     0.993517  Biso 1.000000     O
    O   1.0     0.114086     0.993469     0.371325  Biso 1.000000     O
    O   1.0     0.371240     0.113990     0.993376  Biso 1.000000     O
    O   1.0     0.993609     0.520359     0.371655  Biso 1.000000     O
    O   1.0     0.520235     0.993618     0.114363  Biso 1.000000     O
    O   1.0     0.113729     0.371479     0.521231  Biso 1.000000     O
    O   1.0     0.006567     0.628574     0.478903  Biso 1.000000     O
    O   1.0     0.628735     0.006830     0.885874  Biso 1.000000     O
    O   1.0     0.886045     0.479312     0.628399  Biso 1.000000     O
    O   1.0     0.479529     0.885523     0.006302  Biso 1.000000     O
    O   1.0     0.479302     0.628453     0.885794  Biso 1.000000     O
    O   1.0     0.886121     0.006030     0.479209  Biso 1.000000     O
    O   1.0     0.628800     0.479044     0.006223  Biso 1.000000     O
    O   1.0     0.006439     0.885903     0.628529  Biso 1.000000     O
    O   1.0     0.885992     0.628723     0.006455  Biso 1.000000     O
    O   1.0     0.479844     0.006357     0.628314  Biso 1.000000     O
    O   1.0     0.006589     0.479719     0.885447  Biso 1.000000     O
    O   1.0     0.628492     0.885999     0.478763  Biso 1.000000     O
   Zn   1.0     0.500146     0.067578     0.499904  Biso 1.000000    Zn
   Zn   1.0     0.067617     0.500198     0.932450  Biso 1.000000    Zn
   Zn   1.0     0.499761     0.932516     0.499995  Biso 1.000000    Zn
   Zn   1.0     0.932368     0.500023     0.067560  Biso 1.000000    Zn
   Zn   1.0     0.499896     0.499894     0.932457  Biso 1.000000    Zn
   Zn   1.0     0.067594     0.932365     0.499934  Biso 1.000000    Zn
   Zn   1.0     0.500225     0.499995     0.067397  Biso 1.000000    Zn
   Zn   1.0     0.932391     0.067596     0.499866  Biso 1.000000    Zn
   Zn   1.0     0.499895     0.932335     0.067520  Biso 1.000000    Zn
   Zn   1.0     0.067596     0.500058     0.500073  Biso 1.000000    Zn
   Zn   1.0     0.499988     0.067623     0.932399  Biso 1.000000    Zn
   Zn   1.0     0.932359     0.499859     0.500010  Biso 1.000000    Zn
