#======================================================================

# CRYSTAL DATA

#----------------------------------------------------------------------

data_VESTA_phase_1


_pd_phase_name                         MOF
_cell_length_a                         23.17300
_cell_length_b                         23.13200
_cell_length_c                         22.87600
_cell_angle_alpha                      89.92300
_cell_angle_beta                       90.03800
_cell_angle_gamma                      119.76800
_symmetry_space_group_name_H-M         "P 1"
_symmetry_Int_Tables_number            1

loop_
_symmetry_equiv_pos_as_xyz
   "x, y, z"

loop_
   _atom_site_label
   _atom_site_occupancy
   _atom_site_fract_x
   _atom_site_fract_y
   _atom_site_fract_z
   _atom_site_adp_type
   _atom_site_B_iso_or_equiv
   _atom_site_type_symbol
    H   1.0     0.427729     0.411956     0.889011  Biso 1.000000     H
    H   1.0     0.427732     0.911947     0.889010  Biso 1.000000     H
    H   1.0     0.927720     0.411956     0.889009  Biso 1.000000     H
    H   1.0     0.927722     0.911947     0.889009  Biso 1.000000     H
    H   1.0     0.410490     0.330051     0.908920  Biso 1.000000     H
    H   1.0     0.410491     0.830041     0.908919  Biso 1.000000     H
    H   1.0     0.910480     0.330051     0.908919  Biso 1.000000     H
    H   1.0     0.910481     0.830041     0.908919  Biso 1.000000     H
    H   1.0     0.451945     0.397228     0.959392  Biso 1.000000     H
    H   1.0     0.451948     0.897218     0.959390  Biso 1.000000     H
    H   1.0     0.951936     0.397228     0.959389  Biso 1.000000     H
    H   1.0     0.951938     0.897219     0.959389  Biso 1.000000     H
    H   1.0     0.161847     0.270866     0.031344  Biso 1.000000     H
    H   1.0     0.161847     0.770856     0.031342  Biso 1.000000     H
    H   1.0     0.661836     0.270866     0.031341  Biso 1.000000     H
    H   1.0     0.661837     0.770856     0.031341  Biso 1.000000     H
    H   1.0     0.223149     0.313770     0.086571  Biso 1.000000     H
    H   1.0     0.223152     0.813762     0.086567  Biso 1.000000     H
    H   1.0     0.723141     0.313772     0.086566  Biso 1.000000     H
    H   1.0     0.723143     0.813763     0.086564  Biso 1.000000     H
    H   1.0     0.212630     0.237643     0.056979  Biso 1.000000     H
    H   1.0     0.212631     0.737633     0.056978  Biso 1.000000     H
    H   1.0     0.712619     0.237643     0.056977  Biso 1.000000     H
    H   1.0     0.712620     0.737633     0.056977  Biso 1.000000     H
    H   1.0     0.483732     0.071963     0.555361  Biso 1.000000     H
    H   1.0     0.483734     0.571954     0.555363  Biso 1.000000     H
    H   1.0     0.983722     0.071963     0.555362  Biso 1.000000     H
    H   1.0     0.983723     0.571954     0.555362  Biso 1.000000     H
    H   1.0     0.419491     0.089639     0.575609  Biso 1.000000     H
    H   1.0     0.419492     0.589630     0.575609  Biso 1.000000     H
    H   1.0     0.919480     0.089639     0.575609  Biso 1.000000     H
    H   1.0     0.919482     0.589631     0.575609  Biso 1.000000     H
    H   1.0     0.445311     0.047720     0.625848  Biso 1.000000     H
    H   1.0     0.445311     0.547711     0.625849  Biso 1.000000     H
    H   1.0     0.945300     0.047721     0.625849  Biso 1.000000     H
    H   1.0     0.945301     0.547711     0.625849  Biso 1.000000     H
    H   1.0     0.108653     0.338341     0.697714  Biso 1.000000     H
    H   1.0     0.108655     0.838332     0.697714  Biso 1.000000     H
    H   1.0     0.608643     0.338341     0.697713  Biso 1.000000     H
    H   1.0     0.608643     0.838332     0.697714  Biso 1.000000     H
    H   1.0     0.090116     0.276457     0.752692  Biso 1.000000     H
    H   1.0     0.090117     0.776448     0.752693  Biso 1.000000     H
    H   1.0     0.590105     0.276457     0.752692  Biso 1.000000     H
    H   1.0     0.590106     0.776448     0.752693  Biso 1.000000     H
    H   1.0     0.025029     0.288063     0.723425  Biso 1.000000     H
    H   1.0     0.025030     0.788053     0.723426  Biso 1.000000     H
    H   1.0     0.525018     0.288062     0.723425  Biso 1.000000     H
    H   1.0     0.525019     0.788053     0.723426  Biso 1.000000     H
    H   1.0     0.088077     0.016667     0.222599  Biso 1.000000     H
    H   1.0     0.088078     0.516658     0.222599  Biso 1.000000     H
    H   1.0     0.588067     0.016667     0.222599  Biso 1.000000     H
    H   1.0     0.588068     0.516659     0.222599  Biso 1.000000     H
    H   1.0     0.169763     0.080624     0.242681  Biso 1.000000     H
    H   1.0     0.169764     0.580615     0.242681  Biso 1.000000     H
    H   1.0     0.669752     0.080624     0.242681  Biso 1.000000     H
    H   1.0     0.669753     0.580616     0.242681  Biso 1.000000     H
    H   1.0     0.102550     0.055159     0.293069  Biso 1.000000     H
    H   1.0     0.102552     0.555150     0.293069  Biso 1.000000     H
    H   1.0     0.602540     0.055159     0.293069  Biso 1.000000     H
    H   1.0     0.602541     0.555150     0.293069  Biso 1.000000     H
    H   1.0     0.229228     0.390022     0.364422  Biso 1.000000     H
    H   1.0     0.229229     0.890012     0.364422  Biso 1.000000     H
    H   1.0     0.729219     0.390023     0.364422  Biso 1.000000     H
    H   1.0     0.729218     0.890011     0.364423  Biso 1.000000     H
    H   1.0     0.186246     0.408503     0.419707  Biso 1.000000     H
    H   1.0     0.186247     0.908493     0.419707  Biso 1.000000     H
    H   1.0     0.686236     0.408504     0.419707  Biso 1.000000     H
    H   1.0     0.686236     0.908493     0.419707  Biso 1.000000     H
    H   1.0     0.262288     0.473736     0.390238  Biso 1.000000     H
    H   1.0     0.262289     0.973726     0.390238  Biso 1.000000     H
    H   1.0     0.762278     0.473737     0.390238  Biso 1.000000     H
    H   1.0     0.762278     0.973726     0.390238  Biso 1.000000     H
    H   1.0     0.072074     0.088054     0.388947  Biso 1.000000     H
    H   1.0     0.072076     0.588045     0.388949  Biso 1.000000     H
    H   1.0     0.572062     0.088054     0.388946  Biso 1.000000     H
    H   1.0     0.572067     0.588046     0.388951  Biso 1.000000     H
    H   1.0     0.089445     0.169958     0.408831  Biso 1.000000     H
    H   1.0     0.089446     0.669949     0.408832  Biso 1.000000     H
    H   1.0     0.589434     0.169958     0.408830  Biso 1.000000     H
    H   1.0     0.589435     0.669949     0.408834  Biso 1.000000     H
    H   1.0     0.047803     0.102649     0.459281  Biso 1.000000     H
    H   1.0     0.047806     0.602641     0.459283  Biso 1.000000     H
    H   1.0     0.547790     0.102649     0.459280  Biso 1.000000     H
    H   1.0     0.547797     0.602642     0.459285  Biso 1.000000     H
    H   1.0     0.338008     0.228987     0.531208  Biso 1.000000     H
    H   1.0     0.338009     0.728978     0.531209  Biso 1.000000     H
    H   1.0     0.837998     0.228988     0.531206  Biso 1.000000     H
    H   1.0     0.837999     0.728977     0.531211  Biso 1.000000     H
    H   1.0     0.276689     0.185997     0.586448  Biso 1.000000     H
    H   1.0     0.276692     0.685989     0.586452  Biso 1.000000     H
    H   1.0     0.776676     0.185995     0.586444  Biso 1.000000     H
    H   1.0     0.776685     0.685991     0.586457  Biso 1.000000     H
    H   1.0     0.287184     0.262141     0.556732  Biso 1.000000     H
    H   1.0     0.287185     0.762131     0.556734  Biso 1.000000     H
    H   1.0     0.787173     0.262141     0.556731  Biso 1.000000     H
    H   1.0     0.787174     0.762130     0.556735  Biso 1.000000     H
    H   1.0     0.016267     0.428168     0.055115  Biso 1.000000     H
    H   1.0     0.016268     0.928159     0.055114  Biso 1.000000     H
    H   1.0     0.516256     0.428168     0.055115  Biso 1.000000     H
    H   1.0     0.516257     0.928159     0.055115  Biso 1.000000     H
    H   1.0     0.080681     0.410697     0.075356  Biso 1.000000     H
    H   1.0     0.080682     0.910687     0.075355  Biso 1.000000     H
    H   1.0     0.580671     0.410697     0.075356  Biso 1.000000     H
    H   1.0     0.580671     0.910687     0.075356  Biso 1.000000     H
    H   1.0     0.054645     0.452282     0.125611  Biso 1.000000     H
    H   1.0     0.054646     0.952272     0.125611  Biso 1.000000     H
    H   1.0     0.554634     0.452282     0.125611  Biso 1.000000     H
    H   1.0     0.554635     0.952272     0.125611  Biso 1.000000     H
    H   1.0     0.391583     0.161676     0.197878  Biso 1.000000     H
    H   1.0     0.391583     0.661666     0.197877  Biso 1.000000     H
    H   1.0     0.891571     0.161676     0.197877  Biso 1.000000     H
    H   1.0     0.891572     0.661666     0.197877  Biso 1.000000     H
    H   1.0     0.410015     0.223452     0.252784  Biso 1.000000     H
    H   1.0     0.410015     0.723442     0.252784  Biso 1.000000     H
    H   1.0     0.910003     0.223452     0.252784  Biso 1.000000     H
    H   1.0     0.910004     0.723443     0.252784  Biso 1.000000     H
    H   1.0     0.475184     0.212005     0.223605  Biso 1.000000     H
    H   1.0     0.475184     0.711995     0.223604  Biso 1.000000     H
    H   1.0     0.975173     0.212005     0.223604  Biso 1.000000     H
    H   1.0     0.975174     0.711995     0.223604  Biso 1.000000     H
    H   1.0     0.411871     0.483562     0.722802  Biso 1.000000     H
    H   1.0     0.411872     0.983553     0.722802  Biso 1.000000     H
    H   1.0     0.911860     0.483563     0.722802  Biso 1.000000     H
    H   1.0     0.911862     0.983554     0.722801  Biso 1.000000     H
    H   1.0     0.330155     0.419606     0.742885  Biso 1.000000     H
    H   1.0     0.330156     0.919597     0.742885  Biso 1.000000     H
    H   1.0     0.830145     0.419606     0.742885  Biso 1.000000     H
    H   1.0     0.830146     0.919597     0.742884  Biso 1.000000     H
    H   1.0     0.397346     0.444916     0.793290  Biso 1.000000     H
    H   1.0     0.397347     0.944907     0.793290  Biso 1.000000     H
    H   1.0     0.897336     0.444917     0.793290  Biso 1.000000     H
    H   1.0     0.897337     0.944907     0.793290  Biso 1.000000     H
    H   1.0     0.270811     0.110136     0.864357  Biso 1.000000     H
    H   1.0     0.270811     0.610126     0.864357  Biso 1.000000     H
    H   1.0     0.770799     0.110135     0.864357  Biso 1.000000     H
    H   1.0     0.770800     0.610126     0.864357  Biso 1.000000     H
    H   1.0     0.313816     0.091427     0.919559  Biso 1.000000     H
    H   1.0     0.313816     0.591417     0.919559  Biso 1.000000     H
    H   1.0     0.813805     0.091426     0.919559  Biso 1.000000     H
    H   1.0     0.813806     0.591417     0.919559  Biso 1.000000     H
    H   1.0     0.237617     0.026361     0.890245  Biso 1.000000     H
    H   1.0     0.237617     0.526351     0.890246  Biso 1.000000     H
    H   1.0     0.737606     0.026360     0.890245  Biso 1.000000     H
    H   1.0     0.737607     0.526351     0.890245  Biso 1.000000     H
    H   1.0     0.016375     0.087855     0.777467  Biso 1.000000     H
    H   1.0     0.016376     0.587846     0.777468  Biso 1.000000     H
    H   1.0     0.516364     0.087855     0.777467  Biso 1.000000     H
    H   1.0     0.516365     0.587846     0.777468  Biso 1.000000     H
    H   1.0     0.080351     0.169644     0.757337  Biso 1.000000     H
    H   1.0     0.080352     0.669634     0.757338  Biso 1.000000     H
    H   1.0     0.580340     0.169643     0.757338  Biso 1.000000     H
    H   1.0     0.580341     0.669634     0.757338  Biso 1.000000     H
    H   1.0     0.054817     0.102337     0.706972  Biso 1.000000     H
    H   1.0     0.054817     0.602327     0.706973  Biso 1.000000     H
    H   1.0     0.554807     0.102336     0.706972  Biso 1.000000     H
    H   1.0     0.554806     0.602327     0.706973  Biso 1.000000     H
    H   1.0     0.390372     0.229548     0.635421  Biso 1.000000     H
    H   1.0     0.390372     0.729539     0.635421  Biso 1.000000     H
    H   1.0     0.890360     0.229548     0.635421  Biso 1.000000     H
    H   1.0     0.890363     0.729540     0.635422  Biso 1.000000     H
    H   1.0     0.408802     0.186400     0.580228  Biso 1.000000     H
    H   1.0     0.408802     0.686390     0.580229  Biso 1.000000     H
    H   1.0     0.908790     0.186399     0.580228  Biso 1.000000     H
    H   1.0     0.908792     0.686390     0.580229  Biso 1.000000     H
    H   1.0     0.473947     0.262580     0.609571  Biso 1.000000     H
    H   1.0     0.473948     0.762571     0.609571  Biso 1.000000     H
    H   1.0     0.973935     0.262580     0.609571  Biso 1.000000     H
    H   1.0     0.973938     0.762571     0.609571  Biso 1.000000     H
    H   1.0     0.412070     0.428181     0.111002  Biso 1.000000     H
    H   1.0     0.412070     0.928170     0.111001  Biso 1.000000     H
    H   1.0     0.912058     0.428179     0.111000  Biso 1.000000     H
    H   1.0     0.912059     0.928170     0.111000  Biso 1.000000     H
    H   1.0     0.330238     0.410665     0.091114  Biso 1.000000     H
    H   1.0     0.330239     0.910656     0.091113  Biso 1.000000     H
    H   1.0     0.830227     0.410666     0.091113  Biso 1.000000     H
    H   1.0     0.830228     0.910657     0.091113  Biso 1.000000     H
    H   1.0     0.397342     0.452500     0.040660  Biso 1.000000     H
    H   1.0     0.397343     0.952489     0.040659  Biso 1.000000     H
    H   1.0     0.897330     0.452498     0.040658  Biso 1.000000     H
    H   1.0     0.897332     0.952488     0.040657  Biso 1.000000     H
    H   1.0     0.270987     0.161531     0.969107  Biso 1.000000     H
    H   1.0     0.270988     0.661521     0.969106  Biso 1.000000     H
    H   1.0     0.770977     0.161531     0.969105  Biso 1.000000     H
    H   1.0     0.770979     0.661521     0.969105  Biso 1.000000     H
    H   1.0     0.314088     0.223283     0.914119  Biso 1.000000     H
    H   1.0     0.314089     0.723272     0.914117  Biso 1.000000     H
    H   1.0     0.814077     0.223281     0.914116  Biso 1.000000     H
    H   1.0     0.814078     0.723271     0.914116  Biso 1.000000     H
    H   1.0     0.237818     0.212376     0.943409  Biso 1.000000     H
    H   1.0     0.237819     0.712367     0.943408  Biso 1.000000     H
    H   1.0     0.737808     0.212376     0.943408  Biso 1.000000     H
    H   1.0     0.737809     0.712367     0.943408  Biso 1.000000     H
    H   1.0     0.072079     0.483680     0.444736  Biso 1.000000     H
    H   1.0     0.072080     0.983671     0.444735  Biso 1.000000     H
    H   1.0     0.572068     0.483680     0.444736  Biso 1.000000     H
    H   1.0     0.572070     0.983671     0.444735  Biso 1.000000     H
    H   1.0     0.089603     0.419258     0.424467  Biso 1.000000     H
    H   1.0     0.089604     0.919248     0.424467  Biso 1.000000     H
    H   1.0     0.589593     0.419258     0.424467  Biso 1.000000     H
    H   1.0     0.589593     0.919248     0.424467  Biso 1.000000     H
    H   1.0     0.047928     0.445329     0.374241  Biso 1.000000     H
    H   1.0     0.047930     0.945320     0.374241  Biso 1.000000     H
    H   1.0     0.547918     0.445329     0.374242  Biso 1.000000     H
    H   1.0     0.547919     0.945320     0.374241  Biso 1.000000     H
    H   1.0     0.338052     0.108578     0.302217  Biso 1.000000     H
    H   1.0     0.338054     0.608569     0.302217  Biso 1.000000     H
    H   1.0     0.838042     0.108577     0.302217  Biso 1.000000     H
    H   1.0     0.838043     0.608569     0.302217  Biso 1.000000     H
    H   1.0     0.276395     0.090195     0.247218  Biso 1.000000     H
    H   1.0     0.276396     0.590186     0.247218  Biso 1.000000     H
    H   1.0     0.776384     0.090195     0.247218  Biso 1.000000     H
    H   1.0     0.776385     0.590187     0.247219  Biso 1.000000     H
    H   1.0     0.287701     0.024841     0.276570  Biso 1.000000     H
    H   1.0     0.287702     0.524832     0.276571  Biso 1.000000     H
    H   1.0     0.787690     0.024840     0.276570  Biso 1.000000     H
    H   1.0     0.787692     0.524833     0.276571  Biso 1.000000     H
    H   1.0     0.483639     0.411995     0.277208  Biso 1.000000     H
    H   1.0     0.483639     0.911985     0.277208  Biso 1.000000     H
    H   1.0     0.983628     0.411995     0.277208  Biso 1.000000     H
    H   1.0     0.983629     0.911985     0.277208  Biso 1.000000     H
    H   1.0     0.419806     0.330182     0.257097  Biso 1.000000     H
    H   1.0     0.419806     0.830172     0.257097  Biso 1.000000     H
    H   1.0     0.919795     0.330182     0.257097  Biso 1.000000     H
    H   1.0     0.919796     0.830172     0.257097  Biso 1.000000     H
    H   1.0     0.445155     0.397591     0.206725  Biso 1.000000     H
    H   1.0     0.445156     0.897581     0.206725  Biso 1.000000     H
    H   1.0     0.945144     0.397591     0.206725  Biso 1.000000     H
    H   1.0     0.945145     0.897582     0.206725  Biso 1.000000     H
    H   1.0     0.109848     0.270618     0.135556  Biso 1.000000     H
    H   1.0     0.109850     0.770609     0.135556  Biso 1.000000     H
    H   1.0     0.609839     0.270619     0.135556  Biso 1.000000     H
    H   1.0     0.609840     0.770609     0.135556  Biso 1.000000     H
    H   1.0     0.091316     0.313805     0.080324  Biso 1.000000     H
    H   1.0     0.091317     0.813796     0.080324  Biso 1.000000     H
    H   1.0     0.591306     0.313806     0.080324  Biso 1.000000     H
    H   1.0     0.591307     0.813796     0.080324  Biso 1.000000     H
    H   1.0     0.026251     0.237532     0.109728  Biso 1.000000     H
    H   1.0     0.026252     0.737522     0.109728  Biso 1.000000     H
    H   1.0     0.526241     0.237532     0.109728  Biso 1.000000     H
    H   1.0     0.526242     0.737522     0.109728  Biso 1.000000     H
    H   1.0     0.087895     0.071619     0.611117  Biso 1.000000     H
    H   1.0     0.087896     0.571610     0.611118  Biso 1.000000     H
    H   1.0     0.587886     0.071621     0.611115  Biso 1.000000     H
    H   1.0     0.587885     0.571608     0.611120  Biso 1.000000     H
    H   1.0     0.169695     0.089098     0.591237  Biso 1.000000     H
    H   1.0     0.169696     0.589089     0.591237  Biso 1.000000     H
    H   1.0     0.669685     0.089098     0.591235  Biso 1.000000     H
    H   1.0     0.669685     0.589090     0.591238  Biso 1.000000     H
    H   1.0     0.102552     0.047307     0.540830  Biso 1.000000     H
    H   1.0     0.102553     0.547296     0.540832  Biso 1.000000     H
    H   1.0     0.602542     0.047309     0.540828  Biso 1.000000     H
    H   1.0     0.602541     0.547294     0.540834  Biso 1.000000     H
    H   1.0     0.229103     0.338349     0.468899  Biso 1.000000     H
    H   1.0     0.229104     0.838340     0.468901  Biso 1.000000     H
    H   1.0     0.729091     0.338350     0.468898  Biso 1.000000     H
    H   1.0     0.729094     0.838339     0.468903  Biso 1.000000     H
    H   1.0     0.186048     0.276823     0.413837  Biso 1.000000     H
    H   1.0     0.186048     0.776812     0.413840  Biso 1.000000     H
    H   1.0     0.686038     0.276825     0.413834  Biso 1.000000     H
    H   1.0     0.686036     0.776809     0.413844  Biso 1.000000     H
    H   1.0     0.262143     0.287412     0.443328  Biso 1.000000     H
    H   1.0     0.262145     0.787403     0.443329  Biso 1.000000     H
    H   1.0     0.762132     0.287412     0.443327  Biso 1.000000     H
    H   1.0     0.762134     0.787403     0.443331  Biso 1.000000     H
    H   1.0     0.427760     0.016069     0.944783  Biso 1.000000     H
    H   1.0     0.427761     0.516059     0.944783  Biso 1.000000     H
    H   1.0     0.927749     0.016069     0.944783  Biso 1.000000     H
    H   1.0     0.927750     0.516059     0.944783  Biso 1.000000     H
    H   1.0     0.410411     0.080659     0.924505  Biso 1.000000     H
    H   1.0     0.410411     0.580649     0.924505  Biso 1.000000     H
    H   1.0     0.910400     0.080659     0.924505  Biso 1.000000     H
    H   1.0     0.910401     0.580649     0.924505  Biso 1.000000     H
    H   1.0     0.451849     0.054490     0.874239  Biso 1.000000     H
    H   1.0     0.451850     0.554481     0.874239  Biso 1.000000     H
    H   1.0     0.951838     0.054490     0.874239  Biso 1.000000     H
    H   1.0     0.951839     0.554481     0.874239  Biso 1.000000     H
    H   1.0     0.161846     0.391469     0.802143  Biso 1.000000     H
    H   1.0     0.161847     0.891460     0.802143  Biso 1.000000     H
    H   1.0     0.661835     0.391470     0.802143  Biso 1.000000     H
    H   1.0     0.661837     0.891460     0.802143  Biso 1.000000     H
    H   1.0     0.223557     0.409935     0.747221  Biso 1.000000     H
    H   1.0     0.223558     0.909926     0.747221  Biso 1.000000     H
    H   1.0     0.723546     0.409935     0.747221  Biso 1.000000     H
    H   1.0     0.723547     0.909926     0.747220  Biso 1.000000     H
    H   1.0     0.212217     0.475246     0.776433  Biso 1.000000     H
    H   1.0     0.212219     0.975238     0.776432  Biso 1.000000     H
    H   1.0     0.712207     0.475247     0.776432  Biso 1.000000     H
    H   1.0     0.712208     0.975238     0.776432  Biso 1.000000     H
    B   1.0     0.323288     0.323294     0.000206  Biso 1.000000     B
    B   1.0     0.323285     0.823277     0.000000  Biso 1.000000     B
    B   1.0     0.823274     0.323286     0.000000  Biso 1.000000     B
    B   1.0     0.823279     0.823284     0.000202  Biso 1.000000     B
    B   1.0    -0.000272     0.176813     0.666451  Biso 1.000000     B
    B   1.0    -0.000271     0.676803     0.666452  Biso 1.000000     B
    B   1.0     0.499717     0.176812     0.666450  Biso 1.000000     B
    B   1.0     0.499717     0.676803     0.666452  Biso 1.000000     B
    B   1.0     0.176711    -0.000296     0.333576  Biso 1.000000     B
    B   1.0     0.176713     0.499695     0.333576  Biso 1.000000     B
    B   1.0     0.676701    -0.000296     0.333576  Biso 1.000000     B
    B   1.0     0.676702     0.499696     0.333576  Biso 1.000000     B
    B   1.0     0.176533     0.176486     0.500084  Biso 1.000000     B
    B   1.0     0.176535     0.676477     0.500086  Biso 1.000000     B
    B   1.0     0.676522     0.176487     0.500081  Biso 1.000000     B
    B   1.0     0.676524     0.676476     0.500089  Biso 1.000000     B
    B   1.0     0.000470     0.323257     0.166356  Biso 1.000000     B
    B   1.0     0.000471     0.823247     0.166355  Biso 1.000000     B
    B   1.0     0.500461     0.323257     0.166356  Biso 1.000000     B
    B   1.0     0.500461     0.823247     0.166356  Biso 1.000000     B
    B   1.0     0.323121     0.000355     0.833618  Biso 1.000000     B
    B   1.0     0.323122     0.500345     0.833619  Biso 1.000000     B
    B   1.0     0.823111     0.000355     0.833618  Biso 1.000000     B
    B   1.0     0.823112     0.500345     0.833618  Biso 1.000000     B
    C   1.0     0.478228     0.252125     0.967791  Biso 1.000000     C
    C   1.0     0.478230     0.752116     0.967792  Biso 1.000000     C
    C   1.0     0.978218     0.252125     0.967791  Biso 1.000000     C
    C   1.0     0.978219     0.752115     0.967792  Biso 1.000000     C
    C   1.0     0.413333     0.376226     0.925227  Biso 1.000000     C
    C   1.0     0.413336     0.876217     0.925225  Biso 1.000000     C
    C   1.0     0.913324     0.376227     0.925225  Biso 1.000000     C
    C   1.0     0.913326     0.876218     0.925225  Biso 1.000000     C
    C   1.0     0.211761     0.283653     0.046458  Biso 1.000000     C
    C   1.0     0.211762     0.783643     0.046455  Biso 1.000000     C
    C   1.0     0.711751     0.283652     0.046454  Biso 1.000000     C
    C   1.0     0.711752     0.783642     0.046453  Biso 1.000000     C
    C   1.0     0.274992     0.021934     0.634571  Biso 1.000000     C
    C   1.0     0.274993     0.521925     0.634571  Biso 1.000000     C
    C   1.0     0.774981     0.021935     0.634571  Biso 1.000000     C
    C   1.0     0.774982     0.521925     0.634571  Biso 1.000000     C
    C   1.0     0.462697     0.086480     0.591705  Biso 1.000000     C
    C   1.0     0.462698     0.586471     0.591707  Biso 1.000000     C
    C   1.0     0.962686     0.086481     0.591706  Biso 1.000000     C
    C   1.0     0.962687     0.586471     0.591707  Biso 1.000000     C
    C   1.0     0.071502     0.288407     0.712715  Biso 1.000000     C
    C   1.0     0.071504     0.788398     0.712715  Biso 1.000000     C
    C   1.0     0.571492     0.288407     0.712715  Biso 1.000000     C
    C   1.0     0.571492     0.788398     0.712716  Biso 1.000000     C
    C   1.0     0.247614     0.225229     0.301194  Biso 1.000000     C
    C   1.0     0.247615     0.725219     0.301195  Biso 1.000000     C
    C   1.0     0.747603     0.225229     0.301194  Biso 1.000000     C
    C   1.0     0.747604     0.725219     0.301195  Biso 1.000000     C
    C   1.0     0.123626     0.037525     0.258874  Biso 1.000000     C
    C   1.0     0.123627     0.537516     0.258874  Biso 1.000000     C
    C   1.0     0.623615     0.037525     0.258874  Biso 1.000000     C
    C   1.0     0.623616     0.537517     0.258874  Biso 1.000000     C
    C   1.0     0.216398     0.427229     0.379623  Biso 1.000000     C
    C   1.0     0.216399     0.927219     0.379623  Biso 1.000000     C
    C   1.0     0.716388     0.427230     0.379623  Biso 1.000000     C
    C   1.0     0.716388     0.927219     0.379623  Biso 1.000000     C
    C   1.0     0.021735     0.247930     0.467852  Biso 1.000000     C
    C   1.0     0.021736     0.747919     0.467852  Biso 1.000000     C
    C   1.0     0.521724     0.247930     0.467853  Biso 1.000000     C
    C   1.0     0.521726     0.747919     0.467852  Biso 1.000000     C
    C   1.0     0.086472     0.123689     0.425161  Biso 1.000000     C
    C   1.0     0.086474     0.623680     0.425162  Biso 1.000000     C
    C   1.0     0.586460     0.123688     0.425159  Biso 1.000000     C
    C   1.0     0.586465     0.623681     0.425164  Biso 1.000000     C
    C   1.0     0.288083     0.216155     0.546292  Biso 1.000000     C
    C   1.0     0.288084     0.716145     0.546295  Biso 1.000000     C
    C   1.0     0.788072     0.216156     0.546289  Biso 1.000000     C
    C   1.0     0.788074     0.716144     0.546299  Biso 1.000000     C
    C   1.0     0.224936     0.478071     0.134453  Biso 1.000000     C
    C   1.0     0.224938     0.978061     0.134454  Biso 1.000000     C
    C   1.0     0.724926     0.478071     0.134454  Biso 1.000000     C
    C   1.0     0.724927     0.978061     0.134453  Biso 1.000000     C
    C   1.0     0.037378     0.413634     0.091457  Biso 1.000000     C
    C   1.0     0.037379     0.913625     0.091457  Biso 1.000000     C
    C   1.0     0.537368     0.413635     0.091457  Biso 1.000000     C
    C   1.0     0.537369     0.913625     0.091457  Biso 1.000000     C
    C   1.0     0.428683     0.211606     0.212844  Biso 1.000000     C
    C   1.0     0.428683     0.711596     0.212843  Biso 1.000000     C
    C   1.0     0.928672     0.211606     0.212843  Biso 1.000000     C
    C   1.0     0.928673     0.711596     0.212843  Biso 1.000000     C
    C   1.0     0.252360     0.274781     0.801255  Biso 1.000000     C
    C   1.0     0.252361     0.774772     0.801255  Biso 1.000000     C
    C   1.0     0.752349     0.274781     0.801254  Biso 1.000000     C
    C   1.0     0.752350     0.774771     0.801255  Biso 1.000000     C
    C   1.0     0.376306     0.462648     0.759069  Biso 1.000000     C
    C   1.0     0.376308     0.962639     0.759069  Biso 1.000000     C
    C   1.0     0.876296     0.462649     0.759069  Biso 1.000000     C
    C   1.0     0.876297     0.962640     0.759068  Biso 1.000000     C
    C   1.0     0.283550     0.072815     0.879537  Biso 1.000000     C
    C   1.0     0.283550     0.572805     0.879537  Biso 1.000000     C
    C   1.0     0.783539     0.072815     0.879537  Biso 1.000000     C
    C   1.0     0.783540     0.572805     0.879537  Biso 1.000000     C
    C   1.0     0.224796     0.247216     0.698974  Biso 1.000000     C
    C   1.0     0.224797     0.747207     0.698973  Biso 1.000000     C
    C   1.0     0.724785     0.247216     0.698973  Biso 1.000000     C
    C   1.0     0.724786     0.747207     0.698974  Biso 1.000000     C
    C   1.0     0.037272     0.123491     0.741176  Biso 1.000000     C
    C   1.0     0.037273     0.623481     0.741177  Biso 1.000000     C
    C   1.0     0.537261     0.123490     0.741176  Biso 1.000000     C
    C   1.0     0.537261     0.623481     0.741177  Biso 1.000000     C
    C   1.0     0.427494     0.216642     0.620259  Biso 1.000000     C
    C   1.0     0.427495     0.716632     0.620259  Biso 1.000000     C
    C   1.0     0.927482     0.216642     0.620259  Biso 1.000000     C
    C   1.0     0.927485     0.716633     0.620259  Biso 1.000000     C
    C   1.0     0.251780     0.478076     0.032020  Biso 1.000000     C
    C   1.0     0.251782     0.978067     0.032021  Biso 1.000000     C
    C   1.0     0.751770     0.478076     0.032021  Biso 1.000000     C
    C   1.0     0.751771     0.978067     0.032021  Biso 1.000000     C
    C   1.0     0.376433     0.413728     0.074796  Biso 1.000000     C
    C   1.0     0.376433     0.913717     0.074794  Biso 1.000000     C
    C   1.0     0.876421     0.413727     0.074794  Biso 1.000000     C
    C   1.0     0.876422     0.913717     0.074794  Biso 1.000000     C
    C   1.0     0.283741     0.211584     0.954108  Biso 1.000000     C
    C   1.0     0.283743     0.711574     0.954106  Biso 1.000000     C
    C   1.0     0.783732     0.211583     0.954105  Biso 1.000000     C
    C   1.0     0.783733     0.711574     0.954105  Biso 1.000000     C
    C   1.0     0.021681     0.274728     0.365412  Biso 1.000000     C
    C   1.0     0.021681     0.774718     0.365412  Biso 1.000000     C
    C   1.0     0.521670     0.274728     0.365412  Biso 1.000000     C
    C   1.0     0.521671     0.774718     0.365412  Biso 1.000000     C
    C   1.0     0.086569     0.462622     0.408383  Biso 1.000000     C
    C   1.0     0.086570     0.962612     0.408383  Biso 1.000000     C
    C   1.0     0.586559     0.462622     0.408384  Biso 1.000000     C
    C   1.0     0.586560     0.962612     0.408383  Biso 1.000000     C
    C   1.0     0.288186     0.071472     0.287227  Biso 1.000000     C
    C   1.0     0.288188     0.571463     0.287227  Biso 1.000000     C
    C   1.0     0.788176     0.071472     0.287226  Biso 1.000000     C
    C   1.0     0.788177     0.571464     0.287227  Biso 1.000000     C
    C   1.0     0.275123     0.252654     0.198879  Biso 1.000000     C
    C   1.0     0.275123     0.752644     0.198879  Biso 1.000000     C
    C   1.0     0.775112     0.252654     0.198878  Biso 1.000000     C
    C   1.0     0.775113     0.752644     0.198879  Biso 1.000000     C
    C   1.0     0.462802     0.376438     0.240927  Biso 1.000000     C
    C   1.0     0.462803     0.876428     0.240926  Biso 1.000000     C
    C   1.0     0.962791     0.376438     0.240927  Biso 1.000000     C
    C   1.0     0.962792     0.876429     0.240926  Biso 1.000000     C
    C   1.0     0.072678     0.283489     0.120378  Biso 1.000000     C
    C   1.0     0.072680     0.783479     0.120378  Biso 1.000000     C
    C   1.0     0.572669     0.283489     0.120378  Biso 1.000000     C
    C   1.0     0.572669     0.783479     0.120378  Biso 1.000000     C
    C   1.0     0.248183     0.021847     0.532101  Biso 1.000000     C
    C   1.0     0.248185     0.521837     0.532101  Biso 1.000000     C
    C   1.0     0.748172     0.021848     0.532101  Biso 1.000000     C
    C   1.0     0.748175     0.521837     0.532100  Biso 1.000000     C
    C   1.0     0.123502     0.086067     0.574894  Biso 1.000000     C
    C   1.0     0.123503     0.586057     0.574896  Biso 1.000000     C
    C   1.0     0.623493     0.086068     0.574893  Biso 1.000000     C
    C   1.0     0.623491     0.586055     0.574897  Biso 1.000000     C
    C   1.0     0.216261     0.288312     0.453902  Biso 1.000000     C
    C   1.0     0.216263     0.788303     0.453904  Biso 1.000000     C
    C   1.0     0.716249     0.288313     0.453900  Biso 1.000000     C
    C   1.0     0.716252     0.788302     0.453907  Biso 1.000000     C
    C   1.0     0.478299     0.225164     0.865440  Biso 1.000000     C
    C   1.0     0.478299     0.725155     0.865440  Biso 1.000000     C
    C   1.0     0.978288     0.225164     0.865440  Biso 1.000000     C
    C   1.0     0.978289     0.725155     0.865440  Biso 1.000000     C
    C   1.0     0.413279     0.037243     0.908437  Biso 1.000000     C
    C   1.0     0.413281     0.537233     0.908438  Biso 1.000000     C
    C   1.0     0.913269     0.037243     0.908437  Biso 1.000000     C
    C   1.0     0.913270     0.537234     0.908437  Biso 1.000000     C
    C   1.0     0.211726     0.428604     0.787175  Biso 1.000000     C
    C   1.0     0.211727     0.928595     0.787174  Biso 1.000000     C
    C   1.0     0.711716     0.428605     0.787174  Biso 1.000000     C
    C   1.0     0.711717     0.928595     0.787174  Biso 1.000000     C
    C   1.0     0.013353     0.256264     0.916588  Biso 1.000000     C
    C   1.0     0.013353     0.756254     0.916588  Biso 1.000000     C
    C   1.0     0.513342     0.256264     0.916588  Biso 1.000000     C
    C   1.0     0.513343     0.756255     0.916588  Biso 1.000000     C
    C   1.0     0.083075     0.291391     0.916548  Biso 1.000000     C
    C   1.0     0.083076     0.791383     0.916548  Biso 1.000000     C
    C   1.0     0.583064     0.291392     0.916548  Biso 1.000000     C
    C   1.0     0.583065     0.791383     0.916547  Biso 1.000000     C
    C   1.0     0.243895     0.486759     0.583468  Biso 1.000000     C
    C   1.0     0.243896     0.986750     0.583468  Biso 1.000000     C
    C   1.0     0.743885     0.486759     0.583468  Biso 1.000000     C
    C   1.0     0.743885     0.986751     0.583468  Biso 1.000000     C
    C   1.0     0.208556     0.416914     0.583634  Biso 1.000000     C
    C   1.0     0.208556     0.916905     0.583634  Biso 1.000000     C
    C   1.0     0.708546     0.416914     0.583634  Biso 1.000000     C
    C   1.0     0.708544     0.916905     0.583635  Biso 1.000000     C
    C   1.0     0.243743     0.256477     0.249951  Biso 1.000000     C
    C   1.0     0.243744     0.756467     0.249951  Biso 1.000000     C
    C   1.0     0.743732     0.256477     0.249951  Biso 1.000000     C
    C   1.0     0.743733     0.756467     0.249952  Biso 1.000000     C
    C   1.0     0.208626     0.291387     0.249874  Biso 1.000000     C
    C   1.0     0.208627     0.791378     0.249874  Biso 1.000000     C
    C   1.0     0.708616     0.291388     0.249874  Biso 1.000000     C
    C   1.0     0.708616     0.791378     0.249874  Biso 1.000000     C
    C   1.0     0.486588     0.243694     0.416602  Biso 1.000000     C
    C   1.0     0.486589     0.743684     0.416602  Biso 1.000000     C
    C   1.0     0.986578     0.243694     0.416602  Biso 1.000000     C
    C   1.0     0.986578     0.743685     0.416602  Biso 1.000000     C
    C   1.0     0.416859     0.208547     0.416552  Biso 1.000000     C
    C   1.0     0.416860     0.708537     0.416553  Biso 1.000000     C
    C   1.0     0.916849     0.208546     0.416552  Biso 1.000000     C
    C   1.0     0.916849     0.708538     0.416553  Biso 1.000000     C
    C   1.0     0.256165     0.013183     0.083311  Biso 1.000000     C
    C   1.0     0.256165     0.513173     0.083310  Biso 1.000000     C
    C   1.0     0.756154     0.013183     0.083310  Biso 1.000000     C
    C   1.0     0.756155     0.513173     0.083310  Biso 1.000000     C
    C   1.0     0.291722     0.083020     0.083509  Biso 1.000000     C
    C   1.0     0.291722     0.583011     0.083509  Biso 1.000000     C
    C   1.0     0.791711     0.083020     0.083509  Biso 1.000000     C
    C   1.0     0.791711     0.583011     0.083509  Biso 1.000000     C
    C   1.0     0.256307     0.243597     0.750088  Biso 1.000000     C
    C   1.0     0.256308     0.743588     0.750088  Biso 1.000000     C
    C   1.0     0.756296     0.243597     0.750088  Biso 1.000000     C
    C   1.0     0.756298     0.743587     0.750088  Biso 1.000000     C
    C   1.0     0.291624     0.208888     0.749991  Biso 1.000000     C
    C   1.0     0.291624     0.708879     0.749991  Biso 1.000000     C
    C   1.0     0.791613     0.208888     0.749990  Biso 1.000000     C
    C   1.0     0.791614     0.708879     0.749991  Biso 1.000000     C
    N   1.0     0.448595     0.247826     0.010644  Biso 1.000000     N
    N   1.0     0.448596     0.747816     0.010645  Biso 1.000000     N
    N   1.0     0.948585     0.247826     0.010645  Biso 1.000000     N
    N   1.0     0.948586     0.747816     0.010645  Biso 1.000000     N
    N   1.0     0.300427     0.051670     0.677298  Biso 1.000000     N
    N   1.0     0.300427     0.551660     0.677299  Biso 1.000000     N
    N   1.0     0.800416     0.051670     0.677299  Biso 1.000000     N
    N   1.0     0.800417     0.551660     0.677298  Biso 1.000000     N
    N   1.0     0.251624     0.199710     0.344122  Biso 1.000000     N
    N   1.0     0.251625     0.699700     0.344122  Biso 1.000000     N
    N   1.0     0.751613     0.199709     0.344121  Biso 1.000000     N
    N   1.0     0.751614     0.699701     0.344123  Biso 1.000000     N
    N   1.0     0.051414     0.252353     0.510718  Biso 1.000000     N
    N   1.0     0.051415     0.752341     0.510717  Biso 1.000000     N
    N   1.0     0.551403     0.252353     0.510718  Biso 1.000000     N
    N   1.0     0.551405     0.752341     0.510717  Biso 1.000000     N
    N   1.0     0.199408     0.448472     0.177255  Biso 1.000000     N
    N   1.0     0.199409     0.948462     0.177255  Biso 1.000000     N
    N   1.0     0.699398     0.448473     0.177256  Biso 1.000000     N
    N   1.0     0.699398     0.948463     0.177255  Biso 1.000000     N
    N   1.0     0.248281     0.300270     0.844102  Biso 1.000000     N
    N   1.0     0.248282     0.800261     0.844102  Biso 1.000000     N
    N   1.0     0.748270     0.300270     0.844102  Biso 1.000000     N
    N   1.0     0.748271     0.800261     0.844102  Biso 1.000000     N
    N   1.0     0.199032     0.250992     0.656158  Biso 1.000000     N
    N   1.0     0.199034     0.750984     0.656157  Biso 1.000000     N
    N   1.0     0.699022     0.250993     0.656157  Biso 1.000000     N
    N   1.0     0.699023     0.750983     0.656158  Biso 1.000000     N
    N   1.0     0.247253     0.448464     0.989078  Biso 1.000000     N
    N   1.0     0.247255     0.948454     0.989079  Biso 1.000000     N
    N   1.0     0.747243     0.448463     0.989079  Biso 1.000000     N
    N   1.0     0.747245     0.948454     0.989079  Biso 1.000000     N
    N   1.0     0.051378     0.300096     0.322623  Biso 1.000000     N
    N   1.0     0.051378     0.800087     0.322624  Biso 1.000000     N
    N   1.0     0.551368     0.300097     0.322624  Biso 1.000000     N
    N   1.0     0.551368     0.800086     0.322623  Biso 1.000000     N
    N   1.0     0.300797     0.248631     0.156145  Biso 1.000000     N
    N   1.0     0.300798     0.748621     0.156145  Biso 1.000000     N
    N   1.0     0.800786     0.248630     0.156144  Biso 1.000000     N
    N   1.0     0.800787     0.748621     0.156145  Biso 1.000000     N
    N   1.0     0.252605     0.051390     0.489088  Biso 1.000000     N
    N   1.0     0.252607     0.551380     0.489088  Biso 1.000000     N
    N   1.0     0.752594     0.051391     0.489089  Biso 1.000000     N
    N   1.0     0.752597     0.551379     0.489087  Biso 1.000000     N
    N   1.0     0.448658     0.199720     0.822679  Biso 1.000000     N
    N   1.0     0.448658     0.699710     0.822680  Biso 1.000000     N
    N   1.0     0.948647     0.199720     0.822679  Biso 1.000000     N
    N   1.0     0.948648     0.699711     0.822679  Biso 1.000000     N
    N   1.0     0.141357     0.320774     0.916529  Biso 1.000000     N
    N   1.0     0.141358     0.820766     0.916528  Biso 1.000000     N
    N   1.0     0.641346     0.320776     0.916528  Biso 1.000000     N
    N   1.0     0.641347     0.820767     0.916527  Biso 1.000000     N
    N   1.0     0.178939     0.358533     0.583693  Biso 1.000000     N
    N   1.0     0.178939     0.858524     0.583693  Biso 1.000000     N
    N   1.0     0.678929     0.358533     0.583692  Biso 1.000000     N
    N   1.0     0.678927     0.858525     0.583694  Biso 1.000000     N
    N   1.0     0.179265     0.320563     0.249867  Biso 1.000000     N
    N   1.0     0.179266     0.820553     0.249867  Biso 1.000000     N
    N   1.0     0.679255     0.320564     0.249867  Biso 1.000000     N
    N   1.0     0.679255     0.820553     0.249867  Biso 1.000000     N
    N   1.0     0.358576     0.179144     0.416527  Biso 1.000000     N
    N   1.0     0.358577     0.679135     0.416528  Biso 1.000000     N
    N   1.0     0.858565     0.179143     0.416526  Biso 1.000000     N
    N   1.0     0.858565     0.679136     0.416529  Biso 1.000000     N
    N   1.0     0.321506     0.141397     0.083698  Biso 1.000000     N
    N   1.0     0.321505     0.641387     0.083697  Biso 1.000000     N
    N   1.0     0.821494     0.141397     0.083697  Biso 1.000000     N
    N   1.0     0.821494     0.641387     0.083697  Biso 1.000000     N
    N   1.0     0.321137     0.179867     0.749876  Biso 1.000000     N
    N   1.0     0.321137     0.679857     0.749877  Biso 1.000000     N
    N   1.0     0.821126     0.179867     0.749876  Biso 1.000000     N
    N   1.0     0.821127     0.679858     0.749876  Biso 1.000000     N
    O   1.0     0.351090     0.364389     0.947186  Biso 1.000000     O
    O   1.0     0.351093     0.864382     0.947186  Biso 1.000000     O
    O   1.0     0.851081     0.364392     0.947185  Biso 1.000000     O
    O   1.0     0.851083     0.864383     0.947185  Biso 1.000000     O
    O   1.0     0.257825     0.319574     0.000000  Biso 1.000000     O
    O   1.0     0.257824     0.819561     0.000000  Biso 1.000000     O
    O   1.0     0.757812     0.319570     0.000000  Biso 1.000000     O
    O   1.0     0.757813     0.819559     0.000000  Biso 1.000000     O
    O   1.0     0.013026     0.148680     0.613624  Biso 1.000000     O
    O   1.0     0.013028     0.648670     0.613626  Biso 1.000000     O
    O   1.0     0.513016     0.148679     0.613624  Biso 1.000000     O
    O   1.0     0.513016     0.648670     0.613626  Biso 1.000000     O
    O   1.0     0.060981     0.242390     0.667225  Biso 1.000000     O
    O   1.0     0.060983     0.742381     0.667226  Biso 1.000000     O
    O   1.0     0.560971     0.242389     0.667225  Biso 1.000000     O
    O   1.0     0.560971     0.742380     0.667226  Biso 1.000000     O
    O   1.0     0.135407     0.486797     0.280730  Biso 1.000000     O
    O   1.0     0.135408     0.986787     0.280730  Biso 1.000000     O
    O   1.0     0.635397     0.486798     0.280730  Biso 1.000000     O
    O   1.0     0.635397     0.986786     0.280730  Biso 1.000000     O
    O   1.0     0.180607     0.437909     0.334396  Biso 1.000000     O
    O   1.0     0.180608     0.937899     0.334396  Biso 1.000000     O
    O   1.0     0.680597     0.437910     0.334397  Biso 1.000000     O
    O   1.0     0.680598     0.937898     0.334396  Biso 1.000000     O
    O   1.0     0.148640     0.135335     0.447205  Biso 1.000000     O
    O   1.0     0.148643     0.635327     0.447205  Biso 1.000000     O
    O   1.0     0.648627     0.135333     0.447204  Biso 1.000000     O
    O   1.0     0.648634     0.635330     0.447206  Biso 1.000000     O
    O   1.0     0.242032     0.180279     0.501033  Biso 1.000000     O
    O   1.0     0.242032     0.680266     0.501037  Biso 1.000000     O
    O   1.0     0.742023     0.180283     0.501028  Biso 1.000000     O
    O   1.0     0.742020     0.680262     0.501044  Biso 1.000000     O
    O   1.0     0.487181     0.351287     0.113345  Biso 1.000000     O
    O   1.0     0.487182     0.851278     0.113345  Biso 1.000000     O
    O   1.0     0.987170     0.351287     0.113345  Biso 1.000000     O
    O   1.0     0.987171     0.851278     0.113345  Biso 1.000000     O
    O   1.0     0.439162     0.257687     0.167300  Biso 1.000000     O
    O   1.0     0.439163     0.757677     0.167300  Biso 1.000000     O
    O   1.0     0.939151     0.257687     0.167300  Biso 1.000000     O
    O   1.0     0.939152     0.757677     0.167300  Biso 1.000000     O
    O   1.0     0.364571     0.013359     0.780881  Biso 1.000000     O
    O   1.0     0.364572     0.513349     0.780882  Biso 1.000000     O
    O   1.0     0.864560     0.013360     0.780881  Biso 1.000000     O
    O   1.0     0.864561     0.513350     0.780881  Biso 1.000000     O
    O   1.0     0.319131     0.062080     0.834238  Biso 1.000000     O
    O   1.0     0.319132     0.562070     0.834239  Biso 1.000000     O
    O   1.0     0.819121     0.062080     0.834238  Biso 1.000000     O
    O   1.0     0.819122     0.562070     0.834238  Biso 1.000000     O
    O   1.0     0.486730     0.135445     0.719357  Biso 1.000000     O
    O   1.0     0.486730     0.635436     0.719359  Biso 1.000000     O
    O   1.0     0.986719     0.135445     0.719358  Biso 1.000000     O
    O   1.0     0.986721     0.635436     0.719359  Biso 1.000000     O
    O   1.0     0.438092     0.180796     0.665554  Biso 1.000000     O
    O   1.0     0.438092     0.680787     0.665555  Biso 1.000000     O
    O   1.0     0.938081     0.180797     0.665555  Biso 1.000000     O
    O   1.0     0.938082     0.680787     0.665555  Biso 1.000000     O
    O   1.0     0.364886     0.351504     0.052790  Biso 1.000000     O
    O   1.0     0.364884     0.851492     0.052790  Biso 1.000000     O
    O   1.0     0.864872     0.351501     0.052790  Biso 1.000000     O
    O   1.0     0.864872     0.851491     0.052790  Biso 1.000000     O
    O   1.0     0.319188     0.257530    -0.000407  Biso 1.000000     O
    O   1.0     0.319192     0.757521    -0.000410  Biso 1.000000     O
    O   1.0     0.819181     0.257531    -0.000411  Biso 1.000000     O
    O   1.0     0.819183     0.757521    -0.000411  Biso 1.000000     O
    O   1.0     0.148727     0.013013     0.386483  Biso 1.000000     O
    O   1.0     0.148728     0.513004     0.386483  Biso 1.000000     O
    O   1.0     0.648717     0.013012     0.386483  Biso 1.000000     O
    O   1.0     0.648718     0.513005     0.386483  Biso 1.000000     O
    O   1.0     0.242211     0.061040     0.332696  Biso 1.000000     O
    O   1.0     0.242212     0.561031     0.332697  Biso 1.000000     O
    O   1.0     0.742200     0.061040     0.332696  Biso 1.000000     O
    O   1.0     0.742201     0.561032     0.332697  Biso 1.000000     O
    O   1.0     0.013451     0.364718     0.219094  Biso 1.000000     O
    O   1.0     0.013452     0.864708     0.219094  Biso 1.000000     O
    O   1.0     0.513441     0.364718     0.219094  Biso 1.000000     O
    O   1.0     0.513441     0.864708     0.219094  Biso 1.000000     O
    O   1.0     0.062038     0.319200     0.165647  Biso 1.000000     O
    O   1.0     0.062040     0.819190     0.165647  Biso 1.000000     O
    O   1.0     0.562029     0.319200     0.165648  Biso 1.000000     O
    O   1.0     0.562029     0.819190     0.165647  Biso 1.000000     O
    O   1.0     0.135060     0.148314     0.552770  Biso 1.000000     O
    O   1.0     0.135058     0.648303     0.552771  Biso 1.000000     O
    O   1.0     0.635052     0.148316     0.552770  Biso 1.000000     O
    O   1.0     0.635044     0.648300     0.552771  Biso 1.000000     O
    O   1.0     0.180592     0.242240     0.499308  Biso 1.000000     O
    O   1.0     0.180596     0.742232     0.499311  Biso 1.000000     O
    O   1.0     0.680579     0.242240     0.499304  Biso 1.000000     O
    O   1.0     0.680589     0.742233     0.499316  Biso 1.000000     O
    O   1.0     0.351021     0.486998     0.886644  Biso 1.000000     O
    O   1.0     0.351022     0.986989     0.886643  Biso 1.000000     O
    O   1.0     0.851010     0.486998     0.886643  Biso 1.000000     O
    O   1.0     0.851012     0.986989     0.886643  Biso 1.000000     O
    O   1.0     0.257661     0.438966     0.832697  Biso 1.000000     O
    O   1.0     0.257662     0.938958     0.832696  Biso 1.000000     O
    O   1.0     0.757650     0.438967     0.832696  Biso 1.000000     O
    O   1.0     0.757652     0.938958     0.832696  Biso 1.000000     O
   Cd   1.0     0.261040     0.380828     0.916850  Biso 1.000000    Cd
   Cd   1.0     0.261041     0.880820     0.916849  Biso 1.000000    Cd
   Cd   1.0     0.761030     0.380829     0.916849  Biso 1.000000    Cd
   Cd   1.0     0.761031     0.880820     0.916849  Biso 1.000000    Cd
   Cd   1.0     0.118902     0.238636     0.583210  Biso 1.000000    Cd
   Cd   1.0     0.118903     0.738626     0.583211  Biso 1.000000    Cd
   Cd   1.0     0.618892     0.238636     0.583210  Biso 1.000000    Cd
   Cd   1.0     0.618892     0.738626     0.583212  Biso 1.000000    Cd
   Cd   1.0     0.119286     0.380630     0.250022  Biso 1.000000    Cd
   Cd   1.0     0.119287     0.880620     0.250022  Biso 1.000000    Cd
   Cd   1.0     0.619276     0.380631     0.250023  Biso 1.000000    Cd
   Cd   1.0     0.619276     0.880620     0.250022  Biso 1.000000    Cd
   Cd   1.0     0.238763     0.119029     0.416826  Biso 1.000000    Cd
   Cd   1.0     0.238764     0.619020     0.416826  Biso 1.000000    Cd
   Cd   1.0     0.738752     0.119029     0.416824  Biso 1.000000    Cd
   Cd   1.0     0.738753     0.619020     0.416828  Biso 1.000000    Cd
   Cd   1.0     0.381180     0.261243     0.083307  Biso 1.000000    Cd
   Cd   1.0     0.381180     0.761234     0.083306  Biso 1.000000    Cd
   Cd   1.0     0.881169     0.261243     0.083306  Biso 1.000000    Cd
   Cd   1.0     0.881169     0.761233     0.083306  Biso 1.000000    Cd
   Cd   1.0     0.380787     0.119518     0.749975  Biso 1.000000    Cd
   Cd   1.0     0.380787     0.619508     0.749975  Biso 1.000000    Cd
   Cd   1.0     0.880776     0.119519     0.749975  Biso 1.000000    Cd
   Cd   1.0     0.880777     0.619509     0.749975  Biso 1.000000    Cd
