#======================================================================

# CRYSTAL DATA

#----------------------------------------------------------------------

data_VESTA_phase_1


_pd_phase_name                         MOF
_cell_length_a                         12.41600
_cell_length_b                         12.43900
_cell_length_c                         27.04900
_cell_angle_alpha                      90.02000
_cell_angle_beta                       89.98600
_cell_angle_gamma                      119.91100
_symmetry_space_group_name_H-M         "P 1"
_symmetry_Int_Tables_number            1

loop_
_symmetry_equiv_pos_as_xyz
   "x, y, z"

loop_
   _atom_site_label
   _atom_site_occupancy
   _atom_site_fract_x
   _atom_site_fract_y
   _atom_site_fract_z
   _atom_site_adp_type
   _atom_site_B_iso_or_equiv
   _atom_site_type_symbol
    H   1.0     0.334584     0.061178     0.770061  Biso 1.000000     H
    H   1.0     0.318358     0.034926     0.710928  Biso 1.000000     H
    H   1.0     0.201596     0.861444     0.791413  Biso 1.000000     H
    H   1.0     0.121644     0.638982     0.785716  Biso 1.000000     H
    H   1.0     0.134028     0.571177     0.729700  Biso 1.000000     H
    H   1.0     0.032218     0.633973     0.733636  Biso 1.000000     H
    H   1.0     0.246086     0.709780     0.654787  Biso 1.000000     H
    H   1.0     0.307992     0.871671     0.658649  Biso 1.000000     H
    H   1.0     0.144316     0.772511     0.656481  Biso 1.000000     H
    H   1.0     0.727723     0.663751     0.436095  Biso 1.000000     H
    H   1.0     0.717185     0.681441     0.377113  Biso 1.000000     H
    H   1.0     0.660339     0.796101     0.458578  Biso 1.000000     H
    H   1.0     0.518370     0.877625     0.453397  Biso 1.000000     H
    H   1.0     0.439179     0.867609     0.397355  Biso 1.000000     H
    H   1.0     0.603697     0.968309     0.401792  Biso 1.000000     H
    H   1.0     0.466839     0.758088     0.321820  Biso 1.000000     H
    H   1.0     0.566054     0.694818     0.325246  Biso 1.000000     H
    H   1.0     0.631294     0.858400     0.324001  Biso 1.000000     H
    H   1.0     0.936618     0.272312     0.104572  Biso 1.000000     H
    H   1.0     0.962805     0.281222     0.045434  Biso 1.000000     H
    H   1.0     0.136816     0.338526     0.125967  Biso 1.000000     H
    H   1.0     0.360363     0.479130     0.119505  Biso 1.000000     H
    H   1.0     0.427440     0.557272     0.063095  Biso 1.000000     H
    H   1.0     0.363524     0.393004     0.067731  Biso 1.000000     H
    H   1.0     0.287997     0.530168     0.988619  Biso 1.000000     H
    H   1.0     0.125593     0.432410     0.992985  Biso 1.000000     H
    H   1.0     0.223081     0.365813     0.990735  Biso 1.000000     H
    H   1.0     0.666407     0.937842     0.769852  Biso 1.000000     H
    H   1.0     0.682531     0.964306     0.710747  Biso 1.000000     H
    H   1.0     0.798953     0.137616     0.791362  Biso 1.000000     H
    H   1.0     0.878788     0.360167     0.785734  Biso 1.000000     H
    H   1.0     0.866123     0.427880     0.729764  Biso 1.000000     H
    H   1.0     0.968233     0.365418     0.733607  Biso 1.000000     H
    H   1.0     0.754439     0.289374     0.654829  Biso 1.000000     H
    H   1.0     0.692467     0.127474     0.658633  Biso 1.000000     H
    H   1.0     0.856156     0.226579     0.656449  Biso 1.000000     H
    H   1.0     0.272063     0.335516     0.436053  Biso 1.000000     H
    H   1.0     0.282682     0.317865     0.377061  Biso 1.000000     H
    H   1.0     0.339677     0.203334     0.458494  Biso 1.000000     H
    H   1.0     0.481647     0.121799     0.453191  Biso 1.000000     H
    H   1.0     0.560784     0.131859     0.397114  Biso 1.000000     H
    H   1.0     0.396280     0.031136     0.401582  Biso 1.000000     H
    H   1.0     0.533046     0.241444     0.321658  Biso 1.000000     H
    H   1.0     0.433808     0.304682     0.325173  Biso 1.000000     H
    H   1.0     0.368587     0.141103     0.323854  Biso 1.000000     H
    H   1.0     0.063168     0.726452     0.104600  Biso 1.000000     H
    H   1.0     0.036929     0.717469     0.045469  Biso 1.000000     H
    H   1.0     0.862981     0.660287     0.126038  Biso 1.000000     H
    H   1.0     0.639446     0.519707     0.119611  Biso 1.000000     H
    H   1.0     0.572308     0.441483     0.063211  Biso 1.000000     H
    H   1.0     0.636252     0.605760     0.067847  Biso 1.000000     H
    H   1.0     0.711779     0.468502     0.988686  Biso 1.000000     H
    H   1.0     0.874171     0.566337     0.993035  Biso 1.000000     H
    H   1.0     0.776604     0.632842     0.990832  Biso 1.000000     H
    H   1.0     0.272501     0.937600     0.897553  Biso 1.000000     H
    H   1.0     0.282547     0.964331     0.956647  Biso 1.000000     H
    H   1.0     0.339419     0.137309     0.875933  Biso 1.000000     H
    H   1.0     0.481386     0.359997     0.881646  Biso 1.000000     H
    H   1.0     0.561420     0.427805     0.937672  Biso 1.000000     H
    H   1.0     0.396880     0.365023     0.933695  Biso 1.000000     H
    H   1.0     0.534415     0.289680     0.012623  Biso 1.000000     H
    H   1.0     0.435291     0.127648     0.008797  Biso 1.000000     H
    H   1.0     0.369863     0.226091     0.010813  Biso 1.000000     H
    H   1.0     0.063609     0.335165     0.231093  Biso 1.000000     H
    H   1.0     0.035311     0.317339     0.290074  Biso 1.000000     H
    H   1.0     0.863771     0.203367     0.208599  Biso 1.000000     H
    H   1.0     0.640461     0.122029     0.214034  Biso 1.000000     H
    H   1.0     0.571548     0.131902     0.270183  Biso 1.000000     H
    H   1.0     0.635299     0.031119     0.265530  Biso 1.000000     H
    H   1.0     0.709123     0.241565     0.345601  Biso 1.000000     H
    H   1.0     0.871479     0.304526     0.342009  Biso 1.000000     H
    H   1.0     0.773065     0.140997     0.343328  Biso 1.000000     H
    H   1.0     0.663974     0.726631     0.562843  Biso 1.000000     H
    H   1.0     0.681266     0.717642     0.621986  Biso 1.000000     H
    H   1.0     0.797604     0.659872     0.541378  Biso 1.000000     H
    H   1.0     0.880755     0.519012     0.548063  Biso 1.000000     H
    H   1.0     0.868957     0.440712     0.604513  Biso 1.000000     H
    H   1.0     0.969620     0.604913     0.599927  Biso 1.000000     H
    H   1.0     0.756331     0.468263     0.678840  Biso 1.000000     H
    H   1.0     0.692020     0.566340     0.674297  Biso 1.000000     H
    H   1.0     0.856010     0.632575     0.676702  Biso 1.000000     H
    H   1.0     0.727735     0.061367     0.897665  Biso 1.000000     H
    H   1.0     0.717427     0.034497     0.956742  Biso 1.000000     H
    H   1.0     0.660651     0.861647     0.875931  Biso 1.000000     H
    H   1.0     0.518604     0.638978     0.881549  Biso 1.000000     H
    H   1.0     0.438387     0.571116     0.937531  Biso 1.000000     H
    H   1.0     0.602918     0.633737     0.933606  Biso 1.000000     H
    H   1.0     0.465345     0.709170     0.012553  Biso 1.000000     H
    H   1.0     0.564572     0.871190     0.008802  Biso 1.000000     H
    H   1.0     0.629887     0.772646     0.010787  Biso 1.000000     H
    H   1.0     0.936560     0.663615     0.230970  Biso 1.000000     H
    H   1.0     0.964708     0.681625     0.289961  Biso 1.000000     H
    H   1.0     0.136379     0.795591     0.208541  Biso 1.000000     H
    H   1.0     0.359635     0.876999     0.213975  Biso 1.000000     H
    H   1.0     0.428584     0.867313     0.270127  Biso 1.000000     H
    H   1.0     0.364696     0.967966     0.265462  Biso 1.000000     H
    H   1.0     0.290986     0.757727     0.345570  Biso 1.000000     H
    H   1.0     0.128619     0.694711     0.341971  Biso 1.000000     H
    H   1.0     0.227005     0.858243     0.343253  Biso 1.000000     H
    H   1.0     0.336389     0.272521     0.562748  Biso 1.000000     H
    H   1.0     0.319063     0.281365     0.621904  Biso 1.000000     H
    H   1.0     0.202585     0.339107     0.541390  Biso 1.000000     H
    H   1.0     0.119243     0.479807     0.548209  Biso 1.000000     H
    H   1.0     0.130908     0.557904     0.604722  Biso 1.000000     H
    H   1.0     0.030427     0.393692     0.600040  Biso 1.000000     H
    H   1.0     0.243744     0.530519     0.678941  Biso 1.000000     H
    H   1.0     0.308201     0.432576     0.674330  Biso 1.000000     H
    H   1.0     0.144197     0.366186     0.676778  Biso 1.000000     H
    C   1.0     0.225796     0.771698     0.727671  Biso 1.000000     C
    C   1.0     0.214755     0.878415     0.751420  Biso 1.000000     C
    C   1.0     0.122152     0.646013     0.745232  Biso 1.000000     C
    C   1.0     0.231244     0.782011     0.671135  Biso 1.000000     C
    C   1.0     0.101327     0.885231     0.730039  Biso 1.000000     C
    C   1.0     0.547592     0.775012     0.394762  Biso 1.000000     C
    C   1.0     0.664801     0.784433     0.418502  Biso 1.000000     C
    C   1.0     0.525529     0.878380     0.412912  Biso 1.000000     C
    C   1.0     0.553421     0.771492     0.338201  Biso 1.000000     C
    C   1.0     0.785290     0.898127     0.397707  Biso 1.000000     C
    C   1.0     0.226495     0.450150     0.061763  Biso 1.000000     C
    C   1.0     0.119481     0.333696     0.085977  Biso 1.000000     C
    C   1.0     0.352404     0.471519     0.079058  Biso 1.000000     C
    C   1.0     0.215116     0.444124     0.005260  Biso 1.000000     C
    C   1.0     0.111939     0.212984     0.065093  Biso 1.000000     C
    C   1.0     0.774746     0.227396     0.727672  Biso 1.000000     C
    C   1.0     0.785956     0.120743     0.751356  Biso 1.000000     C
    C   1.0     0.878239     0.353166     0.745247  Biso 1.000000     C
    C   1.0     0.769253     0.217109     0.671133  Biso 1.000000     C
    C   1.0     0.899650     0.114251     0.730029  Biso 1.000000     C
    C   1.0     0.452340     0.224427     0.394629  Biso 1.000000     C
    C   1.0     0.335133     0.214939     0.418423  Biso 1.000000     C
    C   1.0     0.474448     0.121065     0.412709  Biso 1.000000     C
    C   1.0     0.446464     0.228000     0.338072  Biso 1.000000     C
    C   1.0     0.214703     0.101134     0.397651  Biso 1.000000     C
    C   1.0     0.773255     0.548579     0.061838  Biso 1.000000     C
    C   1.0     0.880290     0.665051     0.086045  Biso 1.000000     C
    C   1.0     0.647368     0.527253     0.079163  Biso 1.000000     C
    C   1.0     0.784607     0.554579     0.005332  Biso 1.000000     C
    C   1.0     0.887779     0.785690     0.065151  Biso 1.000000     C
    C   1.0     0.452808     0.227291     0.939725  Biso 1.000000     C
    C   1.0     0.335291     0.120503     0.915948  Biso 1.000000     C
    C   1.0     0.474802     0.352963     0.922128  Biso 1.000000     C
    C   1.0     0.447683     0.217073     0.996265  Biso 1.000000     C
    C   1.0     0.214892     0.113958     0.937093  Biso 1.000000     C
    C   1.0     0.772490     0.224393     0.272580  Biso 1.000000     C
    C   1.0     0.880033     0.214803     0.248669  Biso 1.000000     C
    C   1.0     0.647034     0.121121     0.254508  Biso 1.000000     C
    C   1.0     0.782101     0.227928     0.329130  Biso 1.000000     C
    C   1.0     0.886753     0.100889     0.269286  Biso 1.000000     C
    C   1.0     0.775581     0.548316     0.605631  Biso 1.000000     C
    C   1.0     0.785289     0.664891     0.581375  Biso 1.000000     C
    C   1.0     0.880044     0.526588     0.588503  Biso 1.000000     C
    C   1.0     0.769799     0.554377     0.662124  Biso 1.000000     C
    C   1.0     0.898787     0.785479     0.602160  Biso 1.000000     C
    C   1.0     0.547169     0.771615     0.939689  Biso 1.000000     C
    C   1.0     0.664756     0.878397     0.915954  Biso 1.000000     C
    C   1.0     0.525093     0.645928     0.922036  Biso 1.000000     C
    C   1.0     0.552169     0.781748     0.996233  Biso 1.000000     C
    C   1.0     0.785107     0.884853     0.937083  Biso 1.000000     C
    C   1.0     0.227628     0.774666     0.272530  Biso 1.000000     C
    C   1.0     0.120054     0.784128     0.248606  Biso 1.000000     C
    C   1.0     0.353050     0.877975     0.254449  Biso 1.000000     C
    C   1.0     0.217995     0.771280     0.329081  Biso 1.000000     C
    C   1.0     0.113182     0.897940     0.269257  Biso 1.000000     C
    C   1.0     0.224518     0.450515     0.605709  Biso 1.000000     C
    C   1.0     0.214923     0.334031     0.581378  Biso 1.000000     C
    C   1.0     0.119958     0.472124     0.588642  Biso 1.000000     C
    C   1.0     0.230351     0.444437     0.662194  Biso 1.000000     C
    C   1.0     0.101557     0.213245     0.602118  Biso 1.000000     C
    N   1.0     0.332150     0.000420     0.743725  Biso 1.000000     N
    N   1.0     0.669211     0.667098     0.410044  Biso 1.000000     N
    N   1.0     0.997606     0.329835     0.078136  Biso 1.000000     N
    N   1.0     0.668691     0.998642     0.743590  Biso 1.000000     N
    N   1.0     0.330618     0.332217     0.409996  Biso 1.000000     N
    N   1.0     0.002153     0.668897     0.078173  Biso 1.000000     N
    N   1.0     0.330811     0.998546     0.923825  Biso 1.000000     N
    N   1.0     0.001804     0.331914     0.257160  Biso 1.000000     N
    N   1.0     0.667425     0.669065     0.589268  Biso 1.000000     N
    N   1.0     0.669291     0.000378     0.923889  Biso 1.000000     N
    N   1.0     0.998319     0.666983     0.257074  Biso 1.000000     N
    N   1.0     0.332867     0.330001     0.589215  Biso 1.000000     N
    O   1.0     0.132777     0.981586     0.702449  Biso 1.000000     O
    O   1.0    -0.004691     0.800785     0.739754  Biso 1.000000     O
    O   1.0     0.850016     0.867321     0.369535  Biso 1.000000     O
    O   1.0     0.806953     0.000000     0.408359  Biso 1.000000     O
    O   1.0     0.015517     0.148304     0.037430  Biso 1.000000     O
    O   1.0     0.195890     0.190715     0.075191  Biso 1.000000     O
    O   1.0     0.868582     0.017822     0.702520  Biso 1.000000     O
    O   1.0     0.000000     0.199053     0.739766  Biso 1.000000     O
    O   1.0     0.149981     0.131748     0.369416  Biso 1.000000     O
    O   1.0     0.193100    -0.004315     0.408367  Biso 1.000000     O
    O   1.0     0.984188     0.850302     0.037464  Biso 1.000000     O
    O   1.0     0.803804     0.807935     0.075247  Biso 1.000000     O
    O   1.0     0.149846     0.017895     0.964780  Biso 1.000000     O
    O   1.0     0.193681     0.198537     0.927074  Biso 1.000000     O
    O   1.0     0.981904     0.131452     0.297620  Biso 1.000000     O
    O   1.0     0.803296    -0.004537     0.258352  Biso 1.000000     O
    O   1.0     0.867612     0.850212     0.630102  Biso 1.000000     O
    O   1.0     0.000000     0.807251     0.591703  Biso 1.000000     O
    O   1.0     0.850222     0.980903     0.964777  Biso 1.000000     O
    O   1.0     0.806279     0.800247     0.927034  Biso 1.000000     O
    O   1.0     0.017999     0.867232     0.297610  Biso 1.000000     O
    O   1.0     0.196550     0.000000     0.258356  Biso 1.000000     O
    O   1.0     0.132982     0.148608     0.629970  Biso 1.000000     O
    O   1.0    -0.004411     0.191193     0.591700  Biso 1.000000     O
    S   1.0     0.377539     0.784076     0.746742  Biso 1.000000     S
    S   1.0     0.407773     0.623337     0.413005  Biso 1.000000     S
    S   1.0     0.215527     0.590251     0.080546  Biso 1.000000     S
    S   1.0     0.622929     0.214782     0.746793  Biso 1.000000     S
    S   1.0     0.592126     0.376101     0.412893  Biso 1.000000     S
    S   1.0     0.784225     0.408490     0.080585  Biso 1.000000     S
    S   1.0     0.592291     0.214867     0.920790  Biso 1.000000     S
    S   1.0     0.784408     0.376187     0.254397  Biso 1.000000     S
    S   1.0     0.624653     0.408358     0.586753  Biso 1.000000     S
    S   1.0     0.407782     0.784139     0.920746  Biso 1.000000     S
    S   1.0     0.215805     0.622872     0.254366  Biso 1.000000     S
    S   1.0     0.375405     0.590613     0.586856  Biso 1.000000     S
   Zn   1.0     0.000507    -0.000608     0.666347  Biso 1.000000    Zn
   Zn   1.0    -0.000027    -0.000646     0.333457  Biso 1.000000    Zn
   Zn   1.0    -0.000082    -0.000774     0.001593  Biso 1.000000    Zn
   Pt   1.0     0.500352    -0.000560     0.744883  Biso 1.000000    Pt
   Pt   1.0     0.499910     0.499681     0.411061  Biso 1.000000    Pt
   Pt   1.0    -0.000128     0.499365     0.079043  Biso 1.000000    Pt
   Pt   1.0     0.500063    -0.000497     0.922682  Biso 1.000000    Pt
   Pt   1.0     0.000098     0.499477     0.256168  Biso 1.000000    Pt
   Pt   1.0     0.500098     0.499551     0.588343  Biso 1.000000    Pt
   Au   1.0     0.389537     0.777982     0.833745  Biso 1.000000    Au
   Au   1.0     0.387993     0.609853     0.499929  Biso 1.000000    Au
   Au   1.0     0.222185     0.609425     0.167461  Biso 1.000000    Au
   Au   1.0     0.610780     0.220991     0.833794  Biso 1.000000    Au
   Au   1.0     0.612013     0.389371     0.499812  Biso 1.000000    Au
   Au   1.0     0.777785     0.389458     0.167502  Biso 1.000000    Au
