#======================================================================

# CRYSTAL DATA

#----------------------------------------------------------------------

data_VESTA_phase_1


_pd_phase_name                         MOF
_cell_length_a                         13.46300
_cell_length_b                         13.22400
_cell_length_c                         13.23800
_cell_angle_alpha                      91.96500
_cell_angle_beta                       98.98700
_cell_angle_gamma                      81.00600
_symmetry_space_group_name_H-M         "P 1"
_symmetry_Int_Tables_number            1

loop_
_symmetry_equiv_pos_as_xyz
   "x, y, z"

loop_
   _atom_site_label
   _atom_site_occupancy
   _atom_site_fract_x
   _atom_site_fract_y
   _atom_site_fract_z
   _atom_site_adp_type
   _atom_site_B_iso_or_equiv
   _atom_site_type_symbol
    H   1.0     0.493516     0.000000     0.211045  Biso 1.000000     H
    H   1.0     0.450003     0.923101     0.130590  Biso 1.000000     H
    H   1.0     0.628900     0.884073     0.011753  Biso 1.000000     H
    H   1.0     0.575446     0.786207     0.065720  Biso 1.000000     H
    H   1.0     0.598973     0.893541     0.331596  Biso 1.000000     H
    H   1.0     0.696401     0.801773     0.288752  Biso 1.000000     H
    H   1.0     0.701394     0.000000     0.132118  Biso 1.000000     H
    H   1.0     0.772577     0.921945     0.214120  Biso 1.000000     H
    H   1.0     0.320619     0.054106     0.110754  Biso 1.000000     H
    H   1.0     0.506939     0.125102     0.892329  Biso 1.000000     H
    H   1.0     0.168593     0.149803     0.000000  Biso 1.000000     H
    H   1.0     0.356076     0.223203     0.790404  Biso 1.000000     H
    H   1.0     0.625867     0.731131     0.916783  Biso 1.000000     H
    H   1.0     0.904236     0.663848     0.129797  Biso 1.000000     H
    H   1.0     0.689968     0.596785     0.800492  Biso 1.000000     H
    H   1.0     0.972360     0.532152     0.007137  Biso 1.000000     H
    H   1.0     0.450547     0.616426     0.229214  Biso 1.000000     H
    H   1.0     0.662708     0.765704     0.438787  Biso 1.000000     H
    H   1.0     0.456964     0.483349     0.361434  Biso 1.000000     H
    H   1.0     0.668951     0.632916     0.566522  Biso 1.000000     H
    H   1.0     0.885863    -0.005320     0.279731  Biso 1.000000     H
    H   1.0     0.645920     0.149713     0.436655  Biso 1.000000     H
    H   1.0     0.000000     0.059192     0.410764  Biso 1.000000     H
    H   1.0     0.775652     0.218148     0.564598  Biso 1.000000     H
    H   1.0     0.993520     0.788767    -0.023639  Biso 1.000000     H
    H   1.0     0.950030     0.869467     0.076936  Biso 1.000000     H
    H   1.0     0.128886     0.988369     0.115944  Biso 1.000000     H
    H   1.0     0.075381     0.934329     0.213662  Biso 1.000000     H
    H   1.0     0.098959     0.668194     0.106552  Biso 1.000000     H
    H   1.0     0.196371     0.711106     0.198217  Biso 1.000000     H
    H   1.0     0.201492     0.867947    -0.021319  Biso 1.000000     H
    H   1.0     0.272594     0.785673     0.078107  Biso 1.000000     H
    H   1.0     0.820838     0.888964     0.946194  Biso 1.000000     H
    H   1.0     0.000000     0.107631     0.874771  Biso 1.000000     H
    H   1.0     0.668764    -0.005140     0.850279  Biso 1.000000     H
    H   1.0     0.856034     0.209415     0.776585  Biso 1.000000     H
    H   1.0     0.125726     0.083309     0.268995  Biso 1.000000     H
    H   1.0     0.404179     0.870032     0.335789  Biso 1.000000     H
    H   1.0     0.189836     0.199543     0.403376  Biso 1.000000     H
    H   1.0     0.472309     0.992640     0.467543  Biso 1.000000     H
    H   1.0     0.950435     0.771091     0.383286  Biso 1.000000     H
    H   1.0     0.162629     0.561044     0.234384  Biso 1.000000     H
    H   1.0     0.956840     0.638907     0.516400  Biso 1.000000     H
    H   1.0     0.168878     0.433355     0.367206  Biso 1.000000     H
    H   1.0     0.385828     0.720339     0.000000  Biso 1.000000     H
    H   1.0     0.145913     0.563190     0.850382  Biso 1.000000     H
    H   1.0     0.513685     0.589276     0.940494  Biso 1.000000     H
    H   1.0     0.275638     0.435228     0.781825  Biso 1.000000     H
    C   1.0     0.614426     0.906277     0.172448  Biso 1.000000     C
    C   1.0     0.509552     0.972452     0.146475  Biso 1.000000     C
    C   1.0     0.633618     0.837170     0.079898  Biso 1.000000     C
    C   1.0     0.618331     0.842437     0.267893  Biso 1.000000     C
    C   1.0     0.699521     0.972870     0.197377  Biso 1.000000     C
    C   1.0     0.423544     0.082609     0.007168  Biso 1.000000     C
    C   1.0     0.328316     0.089170     0.039740  Biso 1.000000     C
    C   1.0     0.432865     0.130939     0.917128  Biso 1.000000     C
    C   1.0     0.243146     0.143240     0.980613  Biso 1.000000     C
    C   1.0     0.347680     0.185080     0.859437  Biso 1.000000     C
    C   1.0     0.251345     0.191495     0.890022  Biso 1.000000     C
    C   1.0     0.159755     0.249214     0.830149  Biso 1.000000     C
    C   1.0     0.761583     0.705377     0.031401  Biso 1.000000     C
    C   1.0     0.700933     0.686906     0.938627  Biso 1.000000     C
    C   1.0     0.859210     0.648710     0.056688  Biso 1.000000     C
    C   1.0     0.737579     0.610291     0.872710  Biso 1.000000     C
    C   1.0     0.896163     0.575460     0.988888  Biso 1.000000     C
    C   1.0     0.835183     0.554320     0.896619  Biso 1.000000     C
    C   1.0     0.876511     0.475067     0.825676  Biso 1.000000     C
    C   1.0     0.555935     0.699191     0.324988  Biso 1.000000     C
    C   1.0     0.497315     0.619765     0.303963  Biso 1.000000     C
    C   1.0     0.617234     0.704648     0.420319  Biso 1.000000     C
    C   1.0     0.501331     0.545837     0.377319  Biso 1.000000     C
    C   1.0     0.620649     0.630031     0.492791  Biso 1.000000     C
    C   1.0     0.563520     0.549804     0.472673  Biso 1.000000     C
    C   1.0     0.571778     0.470679     0.552236  Biso 1.000000     C
    C   1.0     0.757082     0.068054     0.350417  Biso 1.000000     C
    C   1.0     0.860756     0.042153     0.342485  Biso 1.000000     C
    C   1.0     0.726757     0.130774     0.431500  Biso 1.000000     C
    C   1.0     0.932999     0.078964     0.415819  Biso 1.000000     C
    C   1.0     0.799242     0.168512     0.502614  Biso 1.000000     C
    C   1.0     0.903509     0.143228     0.495756  Biso 1.000000     C
    C   1.0     0.980046     0.189793     0.567938  Biso 1.000000     C
    C   1.0     0.114442     0.827488     0.093747  Biso 1.000000     C
    C   1.0     0.009597     0.853453     0.027642  Biso 1.000000     C
    C   1.0     0.133582     0.920140     0.162777  Biso 1.000000     C
    C   1.0     0.118320     0.731989     0.157560  Biso 1.000000     C
    C   1.0     0.199555     0.802554     0.027236  Biso 1.000000     C
    C   1.0     0.923647     0.992676     0.917459  Biso 1.000000     C
    C   1.0     0.828481     0.959978     0.910996  Biso 1.000000     C
    C   1.0     0.932905     0.082762     0.869001  Biso 1.000000     C
    C   1.0     0.743291     0.019024     0.856819  Biso 1.000000     C
    C   1.0     0.847697     0.140366     0.814801  Biso 1.000000     C
    C   1.0     0.751435     0.109626     0.808443  Biso 1.000000     C
    C   1.0     0.659782     0.169212     0.750587  Biso 1.000000     C
    C   1.0     0.261502     0.968552     0.294527  Biso 1.000000     C
    C   1.0     0.200810     0.061409     0.313123  Biso 1.000000     C
    C   1.0     0.359148     0.943177     0.351059  Biso 1.000000     C
    C   1.0     0.237459     0.127288     0.389754  Biso 1.000000     C
    C   1.0     0.396086     0.010982     0.424319  Biso 1.000000     C
    C   1.0     0.335084     0.103293     0.445595  Biso 1.000000     C
    C   1.0     0.376454     0.174188     0.524841  Biso 1.000000     C
    C   1.0     0.055848     0.675065     0.300714  Biso 1.000000     C
    C   1.0     0.997202     0.696244     0.380039  Biso 1.000000     C
    C   1.0     0.117153     0.579616     0.295367  Biso 1.000000     C
    C   1.0     0.000000     0.622910     0.453985  Biso 1.000000     C
    C   1.0     0.120567     0.507175     0.370000  Biso 1.000000     C
    C   1.0     0.063419     0.527438     0.450126  Biso 1.000000     C
    C   1.0     0.071681     0.447864     0.529229  Biso 1.000000     C
    C   1.0     0.257066     0.649528     0.931918  Biso 1.000000     C
    C   1.0     0.360731     0.657525     0.957690  Biso 1.000000     C
    C   1.0     0.226746     0.568387     0.869230  Biso 1.000000     C
    C   1.0     0.432970     0.584181     0.920808  Biso 1.000000     C
    C   1.0     0.299228     0.497266     0.831417  Biso 1.000000     C
    C   1.0     0.403488     0.504171     0.856601  Biso 1.000000     C
    C   1.0     0.480046     0.431953     0.810050  Biso 1.000000     C
    O   1.0     0.512254     0.030744     0.057651  Biso 1.000000     O
    O   1.0     0.732939     0.777536     0.102210  Biso 1.000000     O
    O   1.0     0.549389     0.768861     0.248466  Biso 1.000000     O
    O   1.0     0.678926     0.035982     0.284372  Biso 1.000000     O
    O   1.0     0.073393     0.256824     0.855610  Biso 1.000000     O
    O   1.0     0.170466     0.298193     0.747007  Biso 1.000000     O
    O   1.0     0.821747     0.412257     0.777445  Biso 1.000000     O
    O   1.0     0.969136     0.470845     0.814014  Biso 1.000000     O
    O   1.0     0.522794     0.395608     0.532711  Biso 1.000000     O
    O   1.0     0.629967     0.484859     0.636330  Biso 1.000000     O
    O   1.0     0.074788     0.156238     0.564760  Biso 1.000000     O
    O   1.0     0.946253     0.261205     0.626662  Biso 1.000000     O
    O   1.0     0.012369     0.942262     0.969349  Biso 1.000000     O
    O   1.0     0.232879     0.897757     0.222362  Biso 1.000000     O
    O   1.0     0.049336     0.751560     0.231024  Biso 1.000000     O
    O   1.0     0.178925     0.715570     0.964093  Biso 1.000000     O
    O   1.0     0.573666     0.143115     0.742651  Biso 1.000000     O
    O   1.0     0.670190     0.252700     0.701860  Biso 1.000000     O
    O   1.0     0.321725     0.222490     0.587614  Biso 1.000000     O
    O   1.0     0.469115     0.185744     0.529112  Biso 1.000000     O
    O   1.0     0.022664     0.467427     0.604213  Biso 1.000000     O
    O   1.0     0.129906     0.363690     0.515120  Biso 1.000000     O
    O   1.0     0.574762     0.435166     0.843604  Biso 1.000000     O
    O   1.0     0.446297     0.373174     0.738689  Biso 1.000000     O
   Zn   1.0     0.012901     0.365070     0.712167  Biso 1.000000    Zn
   Zn   1.0     0.178770     0.244475     0.604194  Biso 1.000000    Zn
   Zn   1.0     0.512925     0.287433     0.634929  Biso 1.000000    Zn
   Zn   1.0     0.678767     0.395727     0.755479  Biso 1.000000    Zn
