#======================================================================

# CRYSTAL DATA

#----------------------------------------------------------------------

data_VESTA_phase_1


_pd_phase_name                         MOF
_cell_length_a                         19.82400
_cell_length_b                         20.61700
_cell_length_c                         13.36000
_cell_angle_alpha                      74.15400
_cell_angle_beta                       79.59800
_cell_angle_gamma                      61.87900
_symmetry_space_group_name_H-M         "P 1"
_symmetry_Int_Tables_number            1

loop_
_symmetry_equiv_pos_as_xyz
   "x, y, z"

loop_
   _atom_site_label
   _atom_site_occupancy
   _atom_site_fract_x
   _atom_site_fract_y
   _atom_site_fract_z
   _atom_site_adp_type
   _atom_site_B_iso_or_equiv
   _atom_site_type_symbol
    H   1.0     0.346705     0.345764     0.013040  Biso 1.000000     H
    H   1.0     0.346703     0.845774     0.013040  Biso 1.000000     H
    H   1.0     0.846701     0.345763     0.013040  Biso 1.000000     H
    H   1.0     0.846698     0.845773     0.013040  Biso 1.000000     H
    H   1.0     0.339870     0.060010     0.000000  Biso 1.000000     H
    H   1.0     0.339868     0.560020     0.000000  Biso 1.000000     H
    H   1.0     0.839866     0.060009     0.000000  Biso 1.000000     H
    H   1.0     0.839864     0.560019     0.000000  Biso 1.000000     H
    H   1.0     0.075151     0.397760     0.678611  Biso 1.000000     H
    H   1.0     0.075149     0.897770     0.678612  Biso 1.000000     H
    H   1.0     0.575146     0.397760     0.678611  Biso 1.000000     H
    H   1.0     0.575144     0.897770     0.678612  Biso 1.000000     H
    H   1.0     0.061385     0.357523     0.000000  Biso 1.000000     H
    H   1.0     0.061382     0.857533     0.000000  Biso 1.000000     H
    H   1.0     0.561380     0.357522     0.000000  Biso 1.000000     H
    H   1.0     0.561378     0.857532     0.000000  Biso 1.000000     H
    H   1.0     0.375712     0.382516     0.686150  Biso 1.000000     H
    H   1.0     0.375709     0.882526     0.686150  Biso 1.000000     H
    H   1.0     0.875707     0.382516     0.686149  Biso 1.000000     H
    H   1.0     0.875705     0.882526     0.686150  Biso 1.000000     H
    H   1.0     0.355611     0.107329     0.681094  Biso 1.000000     H
    H   1.0     0.355608     0.607339     0.681094  Biso 1.000000     H
    H   1.0     0.855606     0.107329     0.681094  Biso 1.000000     H
    H   1.0     0.855603     0.607339     0.681094  Biso 1.000000     H
    H   1.0     0.152777     0.154930     0.986880  Biso 1.000000     H
    H   1.0     0.152775     0.654940     0.986880  Biso 1.000000     H
    H   1.0     0.652772     0.154929     0.986879  Biso 1.000000     H
    H   1.0     0.652770     0.654939     0.986880  Biso 1.000000     H
    H   1.0     0.159512     0.440593    -0.009492  Biso 1.000000     H
    H   1.0     0.159510     0.940603    -0.009491  Biso 1.000000     H
    H   1.0     0.659508     0.440593    -0.009492  Biso 1.000000     H
    H   1.0     0.659506     0.940602    -0.009492  Biso 1.000000     H
    H   1.0     0.424438     0.102678     0.321119  Biso 1.000000     H
    H   1.0     0.424436     0.602688     0.321120  Biso 1.000000     H
    H   1.0     0.924433     0.102679     0.321119  Biso 1.000000     H
    H   1.0     0.924431     0.602689     0.321120  Biso 1.000000     H
    H   1.0     0.438043     0.143343    -0.007319  Biso 1.000000     H
    H   1.0     0.438041     0.643353    -0.007318  Biso 1.000000     H
    H   1.0     0.938039     0.143343    -0.007318  Biso 1.000000     H
    H   1.0     0.938036     0.643352    -0.007318  Biso 1.000000     H
    H   1.0     0.124044     0.117828     0.313813  Biso 1.000000     H
    H   1.0     0.124042     0.617838     0.313813  Biso 1.000000     H
    H   1.0     0.624039     0.117827     0.313813  Biso 1.000000     H
    H   1.0     0.624037     0.617837     0.313813  Biso 1.000000     H
    H   1.0     0.143922     0.393253     0.318927  Biso 1.000000     H
    H   1.0     0.143919     0.893263     0.318927  Biso 1.000000     H
    H   1.0     0.643917     0.393252     0.318927  Biso 1.000000     H
    H   1.0     0.643914     0.893262     0.318927  Biso 1.000000     H
    C   1.0     0.088902     0.377501     0.759764  Biso 1.000000     C
    C   1.0     0.088900     0.877511     0.759765  Biso 1.000000     C
    C   1.0     0.588897     0.377501     0.759764  Biso 1.000000     C
    C   1.0     0.588895     0.877511     0.759765  Biso 1.000000     C
    C   1.0     0.083146     0.355056     0.926763  Biso 1.000000     C
    C   1.0     0.083143     0.855066     0.926763  Biso 1.000000     C
    C   1.0     0.583141     0.355056     0.926763  Biso 1.000000     C
    C   1.0     0.583139     0.855066     0.926763  Biso 1.000000     C
    C   1.0     0.360365     0.363429     0.766908  Biso 1.000000     C
    C   1.0     0.360363     0.863439     0.766908  Biso 1.000000     C
    C   1.0     0.860360     0.363428     0.766907  Biso 1.000000     C
    C   1.0     0.860358     0.863438     0.766908  Biso 1.000000     C
    C   1.0     0.344962     0.344371     0.933183  Biso 1.000000     C
    C   1.0     0.344960     0.844381     0.933183  Biso 1.000000     C
    C   1.0     0.844957     0.344371     0.933182  Biso 1.000000     C
    C   1.0     0.844955     0.844380     0.933183  Biso 1.000000     C
    C   1.0     0.343531     0.113043     0.761750  Biso 1.000000     C
    C   1.0     0.343528     0.613053     0.761750  Biso 1.000000     C
    C   1.0     0.843526     0.113043     0.761749  Biso 1.000000     C
    C   1.0     0.843524     0.613053     0.761749  Biso 1.000000     C
    C   1.0     0.334714     0.089661     0.928650  Biso 1.000000     C
    C   1.0     0.334711     0.589671     0.928650  Biso 1.000000     C
    C   1.0     0.834709     0.089660     0.928650  Biso 1.000000     C
    C   1.0     0.834707     0.589670     0.928650  Biso 1.000000     C
    C   1.0     0.254451     0.357427     0.501554  Biso 1.000000     C
    C   1.0     0.254448     0.857437     0.501554  Biso 1.000000     C
    C   1.0     0.754446     0.357427     0.501554  Biso 1.000000     C
    C   1.0     0.754444     0.857436     0.501554  Biso 1.000000     C
    C   1.0     0.297962     0.371311     0.398611  Biso 1.000000     C
    C   1.0     0.297959     0.871321     0.398611  Biso 1.000000     C
    C   1.0     0.797957     0.371311     0.398611  Biso 1.000000     C
    C   1.0     0.797955     0.871321     0.398611  Biso 1.000000     C
    C   1.0     0.349222     0.312579     0.349919  Biso 1.000000     C
    C   1.0     0.349220     0.812589     0.349919  Biso 1.000000     C
    C   1.0     0.849218     0.312579     0.349919  Biso 1.000000     C
    C   1.0     0.849215     0.812589     0.349919  Biso 1.000000     C
    C   1.0     0.289755     0.443563     0.349462  Biso 1.000000     C
    C   1.0     0.289753     0.943573     0.349462  Biso 1.000000     C
    C   1.0     0.789750     0.443563     0.349462  Biso 1.000000     C
    C   1.0     0.789748     0.943573     0.349462  Biso 1.000000     C
    C   1.0     0.390620     0.325511     0.257184  Biso 1.000000     C
    C   1.0     0.390618     0.825521     0.257184  Biso 1.000000     C
    C   1.0     0.890616     0.325511     0.257184  Biso 1.000000     C
    C   1.0     0.890613     0.825521     0.257184  Biso 1.000000     C
    C   1.0     0.331961     0.455982     0.257416  Biso 1.000000     C
    C   1.0     0.331958     0.955992     0.257416  Biso 1.000000     C
    C   1.0     0.831956     0.455982     0.257416  Biso 1.000000     C
    C   1.0     0.831954     0.955992     0.257416  Biso 1.000000     C
    C   1.0     0.383604     0.397325     0.209766  Biso 1.000000     C
    C   1.0     0.383602     0.897335     0.209766  Biso 1.000000     C
    C   1.0     0.883600     0.397325     0.209766  Biso 1.000000     C
    C   1.0     0.883597     0.897335     0.209766  Biso 1.000000     C
    C   1.0     0.430074     0.412119     0.110454  Biso 1.000000     C
    C   1.0     0.430072     0.912129     0.110454  Biso 1.000000     C
    C   1.0     0.930069     0.412119     0.110454  Biso 1.000000     C
    C   1.0     0.930067     0.912129     0.110454  Biso 1.000000     C
    C   1.0     0.410647     0.123041     0.239980  Biso 1.000000     C
    C   1.0     0.410644     0.623051     0.239981  Biso 1.000000     C
    C   1.0     0.910642     0.123041     0.239980  Biso 1.000000     C
    C   1.0     0.910640     0.623051     0.239981  Biso 1.000000     C
    C   1.0     0.416315     0.145702     0.072969  Biso 1.000000     C
    C   1.0     0.416313     0.645712     0.072969  Biso 1.000000     C
    C   1.0     0.916311     0.145702     0.072969  Biso 1.000000     C
    C   1.0     0.916308     0.645711     0.072969  Biso 1.000000     C
    C   1.0     0.139306     0.137012     0.233052  Biso 1.000000     C
    C   1.0     0.139304     0.637022     0.233052  Biso 1.000000     C
    C   1.0     0.639301     0.137011     0.233052  Biso 1.000000     C
    C   1.0     0.639299     0.637021     0.233052  Biso 1.000000     C
    C   1.0     0.154567     0.156252     0.066754  Biso 1.000000     C
    C   1.0     0.154565     0.656262     0.066755  Biso 1.000000     C
    C   1.0     0.654563     0.156252     0.066754  Biso 1.000000     C
    C   1.0     0.654561     0.656261     0.066754  Biso 1.000000     C
    C   1.0     0.155939     0.387552     0.238266  Biso 1.000000     C
    C   1.0     0.155936     0.887562     0.238266  Biso 1.000000     C
    C   1.0     0.655934     0.387552     0.238265  Biso 1.000000     C
    C   1.0     0.655931     0.887562     0.238266  Biso 1.000000     C
    C   1.0     0.164679     0.410955     0.071376  Biso 1.000000     C
    C   1.0     0.164676     0.910965     0.071376  Biso 1.000000     C
    C   1.0     0.664674     0.410954     0.071376  Biso 1.000000     C
    C   1.0     0.664672     0.910964     0.071376  Biso 1.000000     C
    C   1.0     0.245442     0.142711     0.498404  Biso 1.000000     C
    C   1.0     0.245439     0.642721     0.498404  Biso 1.000000     C
    C   1.0     0.745437     0.142711     0.498404  Biso 1.000000     C
    C   1.0     0.745434     0.642721     0.498404  Biso 1.000000     C
    C   1.0     0.201956     0.128773     0.601348  Biso 1.000000     C
    C   1.0     0.201953     0.628783     0.601348  Biso 1.000000     C
    C   1.0     0.701951     0.128773     0.601348  Biso 1.000000     C
    C   1.0     0.701948     0.628783     0.601348  Biso 1.000000     C
    C   1.0     0.150715     0.187500     0.650057  Biso 1.000000     C
    C   1.0     0.150712     0.687510     0.650057  Biso 1.000000     C
    C   1.0     0.650710     0.187500     0.650057  Biso 1.000000     C
    C   1.0     0.650707     0.687510     0.650057  Biso 1.000000     C
    C   1.0     0.210167     0.056522     0.650507  Biso 1.000000     C
    C   1.0     0.210164     0.556532     0.650507  Biso 1.000000     C
    C   1.0     0.710162     0.056522     0.650507  Biso 1.000000     C
    C   1.0     0.710160     0.556532     0.650507  Biso 1.000000     C
    C   1.0     0.109312     0.174576     0.742782  Biso 1.000000     C
    C   1.0     0.109310     0.674586     0.742782  Biso 1.000000     C
    C   1.0     0.609307     0.174576     0.742782  Biso 1.000000     C
    C   1.0     0.609305     0.674586     0.742782  Biso 1.000000     C
    C   1.0     0.167952     0.044112     0.742553  Biso 1.000000     C
    C   1.0     0.167950     0.544122     0.742553  Biso 1.000000     C
    C   1.0     0.667948     0.044111     0.742553  Biso 1.000000     C
    C   1.0     0.667945     0.544121     0.742553  Biso 1.000000     C
    C   1.0     0.116295     0.102773     0.790182  Biso 1.000000     C
    C   1.0     0.116292     0.602783     0.790182  Biso 1.000000     C
    C   1.0     0.616290     0.102773     0.790182  Biso 1.000000     C
    C   1.0     0.616287     0.602783     0.790182  Biso 1.000000     C
    C   1.0     0.069788     0.088070     0.889500  Biso 1.000000     C
    C   1.0     0.069786     0.588080     0.889500  Biso 1.000000     C
    C   1.0     0.569784     0.088070     0.889500  Biso 1.000000     C
    C   1.0     0.569781     0.588080     0.889500  Biso 1.000000     C
    N   1.0     0.160221     0.333351     0.789438  Biso 1.000000     N
    N   1.0     0.160218     0.833361     0.789438  Biso 1.000000     N
    N   1.0     0.660216     0.333351     0.789437  Biso 1.000000     N
    N   1.0     0.660214     0.833360     0.789438  Biso 1.000000     N
    N   1.0     0.156382     0.318878     0.897065  Biso 1.000000     N
    N   1.0     0.156379     0.818888     0.897066  Biso 1.000000     N
    N   1.0     0.656377     0.318878     0.897065  Biso 1.000000     N
    N   1.0     0.656375     0.818888     0.897066  Biso 1.000000     N
    N   1.0     0.038409     0.392617     0.843701  Biso 1.000000     N
    N   1.0     0.038407     0.892627     0.843701  Biso 1.000000     N
    N   1.0     0.538404     0.392617     0.843701  Biso 1.000000     N
    N   1.0     0.538402     0.892627     0.843702  Biso 1.000000     N
    N   1.0     0.323159     0.321065     0.796842  Biso 1.000000     N
    N   1.0     0.323157     0.821075     0.796843  Biso 1.000000     N
    N   1.0     0.823154     0.321064     0.796842  Biso 1.000000     N
    N   1.0     0.823152     0.821074     0.796842  Biso 1.000000     N
    N   1.0     0.313442     0.308713     0.904115  Biso 1.000000     N
    N   1.0     0.313440     0.808723     0.904115  Biso 1.000000     N
    N   1.0     0.813438     0.308713     0.904115  Biso 1.000000     N
    N   1.0     0.813436     0.808722     0.904115  Biso 1.000000     N
    N   1.0     0.375069     0.379919     0.849845  Biso 1.000000     N
    N   1.0     0.375066     0.879928     0.849845  Biso 1.000000     N
    N   1.0     0.875064     0.379918     0.849844  Biso 1.000000     N
    N   1.0     0.875062     0.879928     0.849845  Biso 1.000000     N
    N   1.0     0.306396     0.179175     0.790185  Biso 1.000000     N
    N   1.0     0.306394     0.679185     0.790186  Biso 1.000000     N
    N   1.0     0.806391     0.179175     0.790185  Biso 1.000000     N
    N   1.0     0.806389     0.679185     0.790185  Biso 1.000000     N
    N   1.0     0.300758     0.164091     0.898074  Biso 1.000000     N
    N   1.0     0.300756     0.664101     0.898075  Biso 1.000000     N
    N   1.0     0.800753     0.164090     0.898074  Biso 1.000000     N
    N   1.0     0.800751     0.664100     0.898074  Biso 1.000000     N
    N   1.0     0.362290     0.054944     0.846525  Biso 1.000000     N
    N   1.0     0.362287     0.554954     0.846526  Biso 1.000000     N
    N   1.0     0.862285     0.054944     0.846525  Biso 1.000000     N
    N   1.0     0.862282     0.554954     0.846525  Biso 1.000000     N
    N   1.0     0.339315     0.167242     0.210387  Biso 1.000000     N
    N   1.0     0.339312     0.667252     0.210387  Biso 1.000000     N
    N   1.0     0.839310     0.167241     0.210387  Biso 1.000000     N
    N   1.0     0.839308     0.667251     0.210387  Biso 1.000000     N
    N   1.0     0.343090     0.181855     0.102751  Biso 1.000000     N
    N   1.0     0.343088     0.681865     0.102751  Biso 1.000000     N
    N   1.0     0.843086     0.181855     0.102751  Biso 1.000000     N
    N   1.0     0.843083     0.681865     0.102751  Biso 1.000000     N
    N   1.0     0.461096     0.108027     0.155982  Biso 1.000000     N
    N   1.0     0.461094     0.608037     0.155983  Biso 1.000000     N
    N   1.0     0.961092     0.108027     0.155983  Biso 1.000000     N
    N   1.0     0.961090     0.608037     0.155983  Biso 1.000000     N
    N   1.0     0.176459     0.179424     0.203143  Biso 1.000000     N
    N   1.0     0.176457     0.679434     0.203143  Biso 1.000000     N
    N   1.0     0.676455     0.179423     0.203143  Biso 1.000000     N
    N   1.0     0.676452     0.679433     0.203143  Biso 1.000000     N
    N   1.0     0.186098     0.191882     0.095862  Biso 1.000000     N
    N   1.0     0.186096     0.691891     0.095862  Biso 1.000000     N
    N   1.0     0.686093     0.191881     0.095861  Biso 1.000000     N
    N   1.0     0.686091     0.691891     0.095862  Biso 1.000000     N
    N   1.0     0.124539     0.120615     0.150078  Biso 1.000000     N
    N   1.0     0.124537     0.620625     0.150078  Biso 1.000000     N
    N   1.0     0.624535     0.120614     0.150078  Biso 1.000000     N
    N   1.0     0.624533     0.620624     0.150078  Biso 1.000000     N
    N   1.0     0.193044     0.321414     0.209834  Biso 1.000000     N
    N   1.0     0.193041     0.821424     0.209834  Biso 1.000000     N
    N   1.0     0.693039     0.321413     0.209833  Biso 1.000000     N
    N   1.0     0.693037     0.821423     0.209834  Biso 1.000000     N
    N   1.0     0.198627     0.336525     0.101943  Biso 1.000000     N
    N   1.0     0.198625     0.836535     0.101943  Biso 1.000000     N
    N   1.0     0.698622     0.336525     0.101942  Biso 1.000000     N
    N   1.0     0.698620     0.836534     0.101943  Biso 1.000000     N
    N   1.0     0.137146     0.445666     0.153495  Biso 1.000000     N
    N   1.0     0.137144     0.945676     0.153496  Biso 1.000000     N
    N   1.0     0.637142     0.445665     0.153495  Biso 1.000000     N
    N   1.0     0.637139     0.945675     0.153495  Biso 1.000000     N
    O   1.0     0.300720     0.311866     0.574877  Biso 1.000000     O
    O   1.0     0.300717     0.811876     0.574877  Biso 1.000000     O
    O   1.0     0.800715     0.311866     0.574877  Biso 1.000000     O
    O   1.0     0.800712     0.811876     0.574877  Biso 1.000000     O
    O   1.0     0.183655     0.388694     0.508219  Biso 1.000000     O
    O   1.0     0.183653     0.888704     0.508219  Biso 1.000000     O
    O   1.0     0.683650     0.388695     0.508219  Biso 1.000000     O
    O   1.0     0.683648     0.888704     0.508219  Biso 1.000000     O
    O   1.0    -0.010975     0.416782     0.116747  Biso 1.000000     O
    O   1.0    -0.010978     0.916792     0.116748  Biso 1.000000     O
    O   1.0     0.489020     0.416782     0.116748  Biso 1.000000     O
    O   1.0     0.489018     0.916792     0.116748  Biso 1.000000     O
    O   1.0     0.400006     0.418701     0.027787  Biso 1.000000     O
    O   1.0     0.400003     0.918711     0.027787  Biso 1.000000     O
    O   1.0     0.900001     0.418701     0.027787  Biso 1.000000     O
    O   1.0     0.899999     0.918711     0.027787  Biso 1.000000     O
    O   1.0     0.199136     0.188370     0.425157  Biso 1.000000     O
    O   1.0     0.199133     0.688380     0.425158  Biso 1.000000     O
    O   1.0     0.699131     0.188370     0.425157  Biso 1.000000     O
    O   1.0     0.699128     0.688380     0.425157  Biso 1.000000     O
    O   1.0     0.316235     0.111418     0.491702  Biso 1.000000     O
    O   1.0     0.316232     0.611428     0.491702  Biso 1.000000     O
    O   1.0     0.816230     0.111418     0.491702  Biso 1.000000     O
    O   1.0     0.816227     0.611428     0.491702  Biso 1.000000     O
    O   1.0     0.510950     0.083182     0.883311  Biso 1.000000     O
    O   1.0     0.510948     0.583192     0.883311  Biso 1.000000     O
    O   1.0     0.000000     0.083182     0.883311  Biso 1.000000     O
    O   1.0     0.000000     0.583192     0.883311  Biso 1.000000     O
    O   1.0     0.099710     0.081838     0.972103  Biso 1.000000     O
    O   1.0     0.099708     0.581848     0.972103  Biso 1.000000     O
    O   1.0     0.599706     0.081838     0.972103  Biso 1.000000     O
    O   1.0     0.599703     0.581848     0.972103  Biso 1.000000     O
    F   1.0     0.358394     0.241570     0.391868  Biso 1.000000     F
    F   1.0     0.358391     0.741580     0.391868  Biso 1.000000     F
    F   1.0     0.858389     0.241570     0.391868  Biso 1.000000     F
    F   1.0     0.858387     0.741580     0.391868  Biso 1.000000     F
    F   1.0     0.241273     0.503148     0.392131  Biso 1.000000     F
    F   1.0     0.241270     0.000000     0.392131  Biso 1.000000     F
    F   1.0     0.741268     0.503148     0.392131  Biso 1.000000     F
    F   1.0     0.741265     0.000000     0.392131  Biso 1.000000     F
    F   1.0     0.439099     0.266524     0.212408  Biso 1.000000     F
    F   1.0     0.439096     0.766534     0.212408  Biso 1.000000     F
    F   1.0     0.939094     0.266524     0.212408  Biso 1.000000     F
    F   1.0     0.939091     0.766534     0.212408  Biso 1.000000     F
    F   1.0     0.322257     0.027248     0.212651  Biso 1.000000     F
    F   1.0     0.322254     0.527258     0.212651  Biso 1.000000     F
    F   1.0     0.822252     0.027248     0.212651  Biso 1.000000     F
    F   1.0     0.822249     0.527258     0.212651  Biso 1.000000     F
    F   1.0     0.141590     0.258491     0.608132  Biso 1.000000     F
    F   1.0     0.141587     0.758501     0.608132  Biso 1.000000     F
    F   1.0     0.641585     0.258491     0.608132  Biso 1.000000     F
    F   1.0     0.641583     0.758501     0.608132  Biso 1.000000     F
    F   1.0     0.258672    -0.003078     0.607875  Biso 1.000000     F
    F   1.0     0.258669     0.496932     0.607875  Biso 1.000000     F
    F   1.0     0.758667    -0.003078     0.607875  Biso 1.000000     F
    F   1.0     0.758664     0.496932     0.607875  Biso 1.000000     F
    F   1.0     0.060866     0.233543     0.787599  Biso 1.000000     F
    F   1.0     0.060864     0.733553     0.787599  Biso 1.000000     F
    F   1.0     0.560862     0.233543     0.787599  Biso 1.000000     F
    F   1.0     0.560859     0.733553     0.787599  Biso 1.000000     F
    F   1.0     0.177704     0.472839     0.787355  Biso 1.000000     F
    F   1.0     0.177702     0.972849     0.787355  Biso 1.000000     F
    F   1.0     0.677699     0.472839     0.787355  Biso 1.000000     F
    F   1.0     0.677697     0.972849     0.787355  Biso 1.000000     F
   Zn   1.0     0.266112     0.290277     0.718775  Biso 1.000000    Zn
   Zn   1.0     0.266110     0.790287     0.718775  Biso 1.000000    Zn
   Zn   1.0     0.766108     0.290277     0.718775  Biso 1.000000    Zn
   Zn   1.0     0.766105     0.790287     0.718775  Biso 1.000000    Zn
   Zn   1.0     0.424032     0.441950     0.873378  Biso 1.000000    Zn
   Zn   1.0     0.424030     0.941960     0.873378  Biso 1.000000    Zn
   Zn   1.0     0.924027     0.441949     0.873377  Biso 1.000000    Zn
   Zn   1.0     0.924025     0.941959     0.873378  Biso 1.000000    Zn
   Zn   1.0     0.233452     0.210224     0.281193  Biso 1.000000    Zn
   Zn   1.0     0.233450     0.710234     0.281193  Biso 1.000000    Zn
   Zn   1.0     0.733447     0.210224     0.281192  Biso 1.000000    Zn
   Zn   1.0     0.733445     0.710234     0.281193  Biso 1.000000    Zn
   Zn   1.0     0.075464     0.058745     0.126395  Biso 1.000000    Zn
   Zn   1.0     0.075462     0.558755     0.126395  Biso 1.000000    Zn
   Zn   1.0     0.575460     0.058745     0.126395  Biso 1.000000    Zn
   Zn   1.0     0.575457     0.558755     0.126395  Biso 1.000000    Zn
   Zn   1.0     0.249603     0.250491     0.000013  Biso 1.000000    Zn
   Zn   1.0     0.249601     0.750500     0.000014  Biso 1.000000    Zn
   Zn   1.0     0.749598     0.250490     0.000013  Biso 1.000000    Zn
   Zn   1.0     0.749596     0.750500     0.000013  Biso 1.000000    Zn
