#======================================================================

# CRYSTAL DATA

#----------------------------------------------------------------------

data_VESTA_phase_1


_pd_phase_name                         MOF
_cell_length_a                         18.42600
_cell_length_b                         18.43200
_cell_length_c                         18.43100
_cell_angle_alpha                      60.14300
_cell_angle_beta                       60.16000
_cell_angle_gamma                      60.15800
_symmetry_space_group_name_H-M         "P 1"
_symmetry_Int_Tables_number            1

loop_
_symmetry_equiv_pos_as_xyz
   "x, y, z"

loop_
   _atom_site_label
   _atom_site_occupancy
   _atom_site_fract_x
   _atom_site_fract_y
   _atom_site_fract_z
   _atom_site_adp_type
   _atom_site_B_iso_or_equiv
   _atom_site_type_symbol
    H   1.0     0.048450     0.567966     0.048462  Biso 1.000000     H
    H   1.0     0.568165     0.048161     0.335670  Biso 1.000000     H
    H   1.0     0.047738     0.335666     0.047758  Biso 1.000000     H
    H   1.0     0.335631     0.048197     0.568111  Biso 1.000000     H
    H   1.0     0.047736     0.047748     0.335684  Biso 1.000000     H
    H   1.0     0.568168     0.335651     0.048165  Biso 1.000000     H
    H   1.0     0.048456     0.048449     0.567995  Biso 1.000000     H
    H   1.0     0.335630     0.568090     0.048204  Biso 1.000000     H
    H   1.0     0.048162     0.335641     0.568178  Biso 1.000000     H
    H   1.0     0.568071     0.048405     0.048406  Biso 1.000000     H
    H   1.0     0.048158     0.568151     0.335668  Biso 1.000000     H
    H   1.0     0.335641     0.047747     0.047748  Biso 1.000000     H
    H   1.0     0.431926     0.951553     0.951616  Biso 1.000000     H
    H   1.0     0.951839     0.431807     0.664353  Biso 1.000000     H
    H   1.0     0.664357     0.952211     0.952273  Biso 1.000000     H
    H   1.0     0.951835     0.664316     0.431844  Biso 1.000000     H
    H   1.0     0.952264     0.952209     0.664336  Biso 1.000000     H
    H   1.0     0.664368     0.431867     0.951815  Biso 1.000000     H
    H   1.0     0.951544     0.951507     0.432025  Biso 1.000000     H
    H   1.0     0.431830     0.664306     0.951854  Biso 1.000000     H
    H   1.0     0.664367     0.951759     0.431910  Biso 1.000000     H
    H   1.0     0.951547     0.431991     0.951558  Biso 1.000000     H
    H   1.0     0.431833     0.951796     0.664350  Biso 1.000000     H
    H   1.0     0.952259     0.664292     0.952262  Biso 1.000000     H
    C   1.0     0.026846     0.538945     0.026853  Biso 1.000000     C
    C   1.0     0.539083     0.026677     0.407662  Biso 1.000000     C
    C   1.0     0.026438     0.407650     0.026449  Biso 1.000000     C
    C   1.0     0.407634     0.026696     0.539060  Biso 1.000000     C
    C   1.0     0.026438     0.026441     0.407671  Biso 1.000000     C
    C   1.0     0.539083     0.407640     0.026661  Biso 1.000000     C
    C   1.0     0.026850     0.026844     0.538971  Biso 1.000000     C
    C   1.0     0.407633     0.539038     0.026682  Biso 1.000000     C
    C   1.0     0.026667     0.407633     0.539090  Biso 1.000000     C
    C   1.0     0.538995     0.026823     0.026828  Biso 1.000000     C
    C   1.0     0.026665     0.539060     0.407661  Biso 1.000000     C
    C   1.0     0.407639     0.026445     0.026450  Biso 1.000000     C
    C   1.0     0.461002     0.973132     0.973195  Biso 1.000000     C
    C   1.0     0.973333     0.460898     0.592359  Biso 1.000000     C
    C   1.0     0.592358     0.973511     0.973573  Biso 1.000000     C
    C   1.0     0.973331     0.592325     0.460931  Biso 1.000000     C
    C   1.0     0.973561     0.973516     0.592349  Biso 1.000000     C
    C   1.0     0.592365     0.460920     0.973341  Biso 1.000000     C
    C   1.0     0.973148     0.973113     0.461049  Biso 1.000000     C
    C   1.0     0.460915     0.592317     0.973362  Biso 1.000000     C
    C   1.0     0.592363     0.973261     0.460960  Biso 1.000000     C
    C   1.0     0.973151     0.461013     0.973167  Biso 1.000000     C
    C   1.0     0.460915     0.973280     0.592359  Biso 1.000000     C
    C   1.0     0.973559     0.592308     0.973571  Biso 1.000000     C
    C   1.0     0.110948     0.388893     0.110994  Biso 1.000000     C
    C   1.0     0.053630     0.446264     0.053649  Biso 1.000000     C
    C   1.0     0.389078     0.111163     0.389060  Biso 1.000000     C
    C   1.0     0.446387     0.053714     0.446381  Biso 1.000000     C
    C   1.0     0.110949     0.110978     0.388915  Biso 1.000000     C
    C   1.0     0.053626     0.053643     0.446286  Biso 1.000000     C
    C   1.0     0.389080     0.389043     0.111147  Biso 1.000000     C
    C   1.0     0.446387     0.446361     0.053755  Biso 1.000000     C
    C   1.0     0.111109     0.389080     0.389101  Biso 1.000000     C
    C   1.0     0.053737     0.446376     0.446404  Biso 1.000000     C
    C   1.0     0.388938     0.110940     0.110949  Biso 1.000000     C
    C   1.0     0.446290     0.053623     0.053631  Biso 1.000000     C
    C   1.0     0.611059     0.889017     0.889072  Biso 1.000000     C
    C   1.0     0.553707     0.946335     0.946389  Biso 1.000000     C
    C   1.0     0.888888     0.610878     0.610920  Biso 1.000000     C
    C   1.0     0.946259     0.553581     0.553617  Biso 1.000000     C
    C   1.0     0.889051     0.888979     0.611105  Biso 1.000000     C
    C   1.0     0.946373     0.946314     0.553734  Biso 1.000000     C
    C   1.0     0.610918     0.610914     0.888871  Biso 1.000000     C
    C   1.0     0.553611     0.553597     0.946262  Biso 1.000000     C
    C   1.0     0.610920     0.888795     0.610960  Biso 1.000000     C
    C   1.0     0.553610     0.946242     0.553640  Biso 1.000000     C
    C   1.0     0.889048     0.611065     0.889027  Biso 1.000000     C
    C   1.0     0.946369     0.553694     0.946370  Biso 1.000000     C
    O   1.0     0.249986     0.249970     0.249986  Biso 1.000000     O
    O   1.0     0.750012     0.749988     0.750035  Biso 1.000000     O
    O   1.0     0.133175     0.428497     0.133229  Biso 1.000000     O
    O   1.0     0.428677     0.133317     0.305280  Biso 1.000000     O
    O   1.0     0.132914     0.305099     0.132963  Biso 1.000000     O
    O   1.0     0.305285     0.133315     0.428645  Biso 1.000000     O
    O   1.0     0.132913     0.132948     0.305118  Biso 1.000000     O
    O   1.0     0.428681     0.305266     0.133322  Biso 1.000000     O
    O   1.0     0.133172     0.133216     0.428522  Biso 1.000000     O
    O   1.0     0.305286     0.428629     0.133333  Biso 1.000000     O
    O   1.0     0.133276     0.305295     0.428697  Biso 1.000000     O
    O   1.0     0.428570     0.133163     0.133169  Biso 1.000000     O
    O   1.0     0.133280     0.428677     0.305314  Biso 1.000000     O
    O   1.0     0.305122     0.132909     0.132929  Biso 1.000000     O
    O   1.0     0.571427     0.866795     0.866852  Biso 1.000000     O
    O   1.0     0.866717     0.571280     0.694707  Biso 1.000000     O
    O   1.0     0.694875     0.867049     0.867092  Biso 1.000000     O
    O   1.0     0.866722     0.694663     0.571324  Biso 1.000000     O
    O   1.0     0.867085     0.867010     0.694902  Biso 1.000000     O
    O   1.0     0.694711     0.571329     0.866686  Biso 1.000000     O
    O   1.0     0.866827     0.866742     0.571499  Biso 1.000000     O
    O   1.0     0.571317     0.694692     0.866698  Biso 1.000000     O
    O   1.0     0.694712     0.866642     0.571375  Biso 1.000000     O
    O   1.0     0.866822     0.571462     0.866791  Biso 1.000000     O
    O   1.0     0.571320     0.866641     0.694740  Biso 1.000000     O
    O   1.0     0.867083     0.694859     0.867057  Biso 1.000000     O
   Zn   1.0     0.206634     0.380422     0.206726  Biso 1.000000    Zn
   Zn   1.0     0.380465     0.206630     0.206635  Biso 1.000000    Zn
   Zn   1.0     0.206358     0.206304     0.206327  Biso 1.000000    Zn
   Zn   1.0     0.206627     0.206710     0.380441  Biso 1.000000    Zn
   Zn   1.0     0.619532     0.793328     0.793385  Biso 1.000000    Zn
   Zn   1.0     0.793363     0.619536     0.793294  Biso 1.000000    Zn
   Zn   1.0     0.793639     0.793655     0.793693  Biso 1.000000    Zn
   Zn   1.0     0.793371     0.793248     0.619579  Biso 1.000000    Zn
