#======================================================================

# CRYSTAL DATA

#----------------------------------------------------------------------

data_VESTA_phase_1


_pd_phase_name                         MOF
_cell_length_a                         14.23900
_cell_length_b                         14.54200
_cell_length_c                         15.06800
_cell_angle_alpha                      89.69100
_cell_angle_beta                       90.22200
_cell_angle_gamma                      90.18900
_symmetry_space_group_name_H-M         "P 1"
_symmetry_Int_Tables_number            1

loop_
_symmetry_equiv_pos_as_xyz
   "x, y, z"

loop_
   _atom_site_label
   _atom_site_occupancy
   _atom_site_fract_x
   _atom_site_fract_y
   _atom_site_fract_z
   _atom_site_adp_type
   _atom_site_B_iso_or_equiv
   _atom_site_type_symbol
    H   1.0     0.834095     0.764468     0.026477  Biso 1.000000     H
    H   1.0     0.976779     0.699145     0.271268  Biso 1.000000     H
    H   1.0     0.739934     0.536059     0.186406  Biso 1.000000     H
    H   1.0     0.665753     0.236631     0.528018  Biso 1.000000     H
    H   1.0     0.521675     0.304301     0.769780  Biso 1.000000     H
    H   1.0     0.760695     0.464887     0.686077  Biso 1.000000     H
    H   1.0     0.167231     0.263467     0.471177  Biso 1.000000     H
    H   1.0     0.020222     0.200349     0.228588  Biso 1.000000     H
    H   1.0     0.258149     0.037257     0.309737  Biso 1.000000     H
    H   1.0     0.333596     0.738721     0.974800  Biso 1.000000     H
    H   1.0     0.476465     0.803896     0.730856  Biso 1.000000     H
    H   1.0     0.238822     0.965099     0.812540  Biso 1.000000     H
    C   1.0     0.779397     0.648003     0.099268  Biso 1.000000     C
    C   1.0     0.840971     0.722015     0.085801  Biso 1.000000     C
    C   1.0     0.911767     0.740739     0.147899  Biso 1.000000     C
    C   1.0     0.920971     0.685243     0.223622  Biso 1.000000     C
    C   1.0     0.858747     0.611884     0.237751  Biso 1.000000     C
    C   1.0     0.787833     0.593448     0.175637  Biso 1.000000     C
    C   1.0     0.706543     0.627097     0.031066  Biso 1.000000     C
    C   1.0     0.979235     0.817831     0.132936  Biso 1.000000     C
    C   1.0     0.869254     0.551076     0.316556  Biso 1.000000     C
    C   1.0     0.721097     0.352781     0.600030  Biso 1.000000     C
    C   1.0     0.658835     0.279386     0.586645  Biso 1.000000     C
    C   1.0     0.587262     0.261686     0.647918  Biso 1.000000     C
    C   1.0     0.577997     0.317550     0.722772  Biso 1.000000     C
    C   1.0     0.640733     0.390471     0.736759  Biso 1.000000     C
    C   1.0     0.712381     0.407858     0.675426  Biso 1.000000     C
    C   1.0     0.794648     0.373006     0.532589  Biso 1.000000     C
    C   1.0     0.519019     0.185337     0.632811  Biso 1.000000     C
    C   1.0     0.630388     0.451930     0.814551  Biso 1.000000     C
    C   1.0     0.220605     0.148169     0.397512  Biso 1.000000     C
    C   1.0     0.159253     0.221636     0.411964  Biso 1.000000     C
    C   1.0     0.087236     0.240602     0.351096  Biso 1.000000     C
    C   1.0     0.076772     0.186127     0.275406  Biso 1.000000     C
    C   1.0     0.138637     0.113270     0.260244  Biso 1.000000     C
    C   1.0     0.210597     0.094344     0.321273  Biso 1.000000     C
    C   1.0     0.294563     0.127034     0.464752  Biso 1.000000     C
    C   1.0     0.020001     0.317005     0.367232  Biso 1.000000     C
    C   1.0     0.126473     0.053954     0.181223  Biso 1.000000     C
    C   1.0     0.278403     0.854022     0.900704  Biso 1.000000     C
    C   1.0     0.340454     0.780880     0.915289  Biso 1.000000     C
    C   1.0     0.411549     0.762555     0.853963  Biso 1.000000     C
    C   1.0     0.420587     0.817616     0.777967  Biso 1.000000     C
    C   1.0     0.358160     0.890272     0.762834  Biso 1.000000     C
    C   1.0     0.286955     0.908299     0.824132  Biso 1.000000     C
    C   1.0     0.204967     0.874614     0.967930  Biso 1.000000     C
    C   1.0     0.479160     0.686011     0.869357  Biso 1.000000     C
    C   1.0     0.368850     0.950425     0.683580  Biso 1.000000     C
    O   1.0     0.654344     0.555439     0.044389  Biso 1.000000     O
    O   1.0     0.698898     0.679966     0.964038  Biso 1.000000     O
    O   1.0     0.967666     0.867163     0.062404  Biso 1.000000     O
    O   1.0     0.044168     0.831321     0.189697  Biso 1.000000     O
    O   1.0     0.942121     0.562039     0.366715  Biso 1.000000     O
    O   1.0     0.807452     0.489444     0.332728  Biso 1.000000     O
    O   1.0     0.847519     0.444072     0.546199  Biso 1.000000     O
    O   1.0     0.802383     0.320656     0.465747  Biso 1.000000     O
    O   1.0     0.530399     0.136170     0.562692  Biso 1.000000     O
    O   1.0     0.453678     0.172288     0.688906  Biso 1.000000     O
    O   1.0     0.558023     0.440655     0.865030  Biso 1.000000     O
    O   1.0     0.691884     0.513912     0.829426  Biso 1.000000     O
    O   1.0     0.345692     0.055034     0.451883  Biso 1.000000     O
    O   1.0     0.304353     0.179809     0.531190  Biso 1.000000     O
    O   1.0     0.032441     0.364799     0.438247  Biso 1.000000     O
    O   1.0     0.954509     0.331730     0.311334  Biso 1.000000     O
    O   1.0     0.053974     0.066348     0.130929  Biso 1.000000     O
    O   1.0     0.186671     0.991559     0.164138  Biso 1.000000     O
    O   1.0     0.152186     0.945275     0.953043  Biso 1.000000     O
    O   1.0     0.197453     0.822680     0.035640  Biso 1.000000     O
    O   1.0     0.468414     0.637220     0.940486  Biso 1.000000     O
    O   1.0     0.543255     0.671893     0.812538  Biso 1.000000     O
    O   1.0     0.440786     0.938220     0.633137  Biso 1.000000     O
    O   1.0     0.308182     0.012665     0.666984  Biso 1.000000     O
   Zn   1.0     0.564811     0.543093     0.947933  Biso 1.000000    Zn
   Zn   1.0     0.691047     0.660433     0.825458  Biso 1.000000    Zn
   Zn   1.0     0.934412     0.457190     0.448400  Biso 1.000000    Zn
   Zn   1.0     0.806955     0.343174     0.326028  Biso 1.000000    Zn
   Zn   1.0     0.432286     0.043052     0.551223  Biso 1.000000    Zn
   Zn   1.0     0.308103     0.160273     0.670977  Biso 1.000000    Zn
   Zn   1.0     0.065681     0.960607     0.050952  Biso 1.000000    Zn
   Zn   1.0     0.189826     0.843689     0.174489  Biso 1.000000    Zn
