#======================================================================

# CRYSTAL DATA

#----------------------------------------------------------------------

data_VESTA_phase_1


_pd_phase_name                         MOF
_cell_length_a                         13.50100
_cell_length_b                         14.42200
_cell_length_c                         15.35300
_cell_angle_alpha                      89.96100
_cell_angle_beta                       90.05600
_cell_angle_gamma                      88.50700
_symmetry_space_group_name_H-M         "P 1"
_symmetry_Int_Tables_number            1

loop_
_symmetry_equiv_pos_as_xyz
   "x, y, z"

loop_
   _atom_site_label
   _atom_site_occupancy
   _atom_site_fract_x
   _atom_site_fract_y
   _atom_site_fract_z
   _atom_site_adp_type
   _atom_site_B_iso_or_equiv
   _atom_site_type_symbol
    H   1.0     0.539462     0.696020     0.265395  Biso 1.000000     H
    H   1.0     0.783591     0.517081     0.186566  Biso 1.000000     H
    H   1.0     0.707975     0.761650     0.036557  Biso 1.000000     H
    H   1.0     0.961187     0.303894     0.765645  Biso 1.000000     H
    H   1.0     0.716883     0.482746     0.686368  Biso 1.000000     H
    H   1.0     0.792111     0.237984     0.536976  Biso 1.000000     H
    H   1.0     0.459661     0.198096     0.230673  Biso 1.000000     H
    H   1.0     0.220572     0.026362     0.312829  Biso 1.000000     H
    H   1.0     0.295020     0.267245     0.462822  Biso 1.000000     H
    H   1.0     0.040579     0.800787     0.730431  Biso 1.000000     H
    H   1.0     0.279717     0.973068     0.811710  Biso 1.000000     H
    H   1.0     0.205581     0.732888     0.963049  Biso 1.000000     H
    C   1.0     0.617453     0.738165     0.149952  Biso 1.000000     C
    C   1.0     0.600310     0.679919     0.221058  Biso 1.000000     C
    C   1.0     0.660517     0.600734     0.234656  Biso 1.000000     C
    C   1.0     0.737575     0.579251     0.176538  Biso 1.000000     C
    C   1.0     0.754488     0.637062     0.105064  Biso 1.000000     C
    C   1.0     0.694916     0.716905     0.092230  Biso 1.000000     C
    C   1.0     0.550069     0.819837     0.134243  Biso 1.000000     C
    C   1.0     0.640895     0.536889     0.308705  Biso 1.000000     C
    C   1.0     0.832778     0.612934     0.040646  Biso 1.000000     C
    C   1.0     0.882931     0.261575     0.650314  Biso 1.000000     C
    C   1.0     0.900221     0.319924     0.721283  Biso 1.000000     C
    C   1.0     0.840002     0.399122     0.734698  Biso 1.000000     C
    C   1.0     0.762847     0.420543     0.676515  Biso 1.000000     C
    C   1.0     0.745827     0.362676     0.605156  Biso 1.000000     C
    C   1.0     0.805328     0.282787     0.592542  Biso 1.000000     C
    C   1.0     0.950312     0.179898     0.634630  Biso 1.000000     C
    C   1.0     0.859554     0.463012     0.808693  Biso 1.000000     C
    C   1.0     0.667451     0.386846     0.540670  Biso 1.000000     C
    C   1.0     0.383245     0.242007     0.347519  Biso 1.000000     C
    C   1.0     0.399985     0.183648     0.275868  Biso 1.000000     C
    C   1.0     0.340785     0.106560     0.262789  Biso 1.000000     C
    C   1.0     0.265631     0.087001     0.322360  Biso 1.000000     C
    C   1.0     0.249628     0.144490     0.394728  Biso 1.000000     C
    C   1.0     0.307684     0.222597     0.406626  Biso 1.000000     C
    C   1.0     0.449323     0.321583     0.362604  Biso 1.000000     C
    C   1.0     0.359545     0.042809     0.187859  Biso 1.000000     C
    C   1.0     0.174217     0.121782     0.461417  Biso 1.000000     C
    C   1.0     0.117238     0.757459     0.847512  Biso 1.000000     C
    C   1.0     0.100337     0.815452     0.775555  Biso 1.000000     C
    C   1.0     0.159503     0.892459     0.762016  Biso 1.000000     C
    C   1.0     0.234702     0.912447     0.821558  Biso 1.000000     C
    C   1.0     0.250700     0.855413     0.894376  Biso 1.000000     C
    C   1.0     0.192796     0.777254     0.906598  Biso 1.000000     C
    C   1.0     0.051260     0.677883     0.862845  Biso 1.000000     C
    C   1.0     0.140490     0.955488     0.686564  Biso 1.000000     C
    C   1.0     0.326123     0.878431     0.961095  Biso 1.000000     C
    O   1.0     0.568651     0.871790     0.067936  Biso 1.000000     O
    O   1.0     0.476970     0.834882     0.185048  Biso 1.000000     O
    O   1.0     0.562637     0.554700     0.354595  Biso 1.000000     O
    O   1.0     0.701051     0.469258     0.322507  Biso 1.000000     O
    O   1.0     0.882634     0.536011     0.048840  Biso 1.000000     O
    O   1.0     0.849621     0.668357     0.977503  Biso 1.000000     O
    O   1.0     0.931543     0.128122     0.568280  Biso 1.000000     O
    O   1.0     0.023494     0.164718     0.685452  Biso 1.000000     O
    O   1.0     0.937743     0.445205     0.854795  Biso 1.000000     O
    O   1.0     0.799388     0.530654     0.822298  Biso 1.000000     O
    O   1.0     0.617600     0.463765     0.548838  Biso 1.000000     O
    O   1.0     0.650596     0.331554     0.477505  Biso 1.000000     O
    O   1.0     0.427483     0.376758     0.426468  Biso 1.000000     O
    O   1.0     0.524324     0.331642     0.313697  Biso 1.000000     O
    O   1.0     0.436719     0.058106     0.140688  Biso 1.000000     O
    O   1.0     0.300299     0.977400     0.173968  Biso 1.000000     O
    O   1.0     0.125298     0.046665     0.451797  Biso 1.000000     O
    O   1.0     0.160403     0.176148     0.525933  Biso 1.000000     O
    O   1.0     0.073560     0.622428     0.926490  Biso 1.000000     O
    O   1.0     0.975862     0.668070     0.814237  Biso 1.000000     O
    O   1.0     0.062136     0.941206     0.640558  Biso 1.000000     O
    O   1.0     0.200523     0.019876     0.670957  Biso 1.000000     O
    O   1.0     0.374505     0.953849     0.951611  Biso 1.000000     O
    O   1.0     0.340658     0.824010     0.025603  Biso 1.000000     O
   Zn   1.0     0.457933     0.960363     0.055760  Biso 1.000000    Zn
   Zn   1.0     0.321424     0.832328     0.163131  Biso 1.000000    Zn
   Zn   1.0     0.041951     0.039422     0.555619  Biso 1.000000    Zn
   Zn   1.0     0.178971     0.164573     0.663181  Biso 1.000000    Zn
   Zn   1.0     0.537147     0.460409     0.440985  Biso 1.000000    Zn
   Zn   1.0     0.679063     0.327476     0.340189  Biso 1.000000    Zn
   Zn   1.0     0.963060     0.539569     0.941067  Biso 1.000000    Zn
   Zn   1.0     0.820972     0.672483     0.840172  Biso 1.000000    Zn
