#======================================================================

# CRYSTAL DATA

#----------------------------------------------------------------------

data_VESTA_phase_1


_pd_phase_name                         MOF
_cell_length_a                         14.27700
_cell_length_b                         14.86400
_cell_length_c                         15.15200
_cell_angle_alpha                      90.01500
_cell_angle_beta                       90.48700
_cell_angle_gamma                      90.04100
_symmetry_space_group_name_H-M         "P 1"
_symmetry_Int_Tables_number            1

loop_
_symmetry_equiv_pos_as_xyz
   "x, y, z"

loop_
   _atom_site_label
   _atom_site_occupancy
   _atom_site_fract_x
   _atom_site_fract_y
   _atom_site_fract_z
   _atom_site_adp_type
   _atom_site_B_iso_or_equiv
   _atom_site_type_symbol
    H   1.0     0.908780     0.773197     0.000000  Biso 1.000000     H
    H   1.0     0.767747     0.018643     0.936822  Biso 1.000000     H
    H   1.0     0.000000     0.923898     0.784082  Biso 1.000000     H
    H   1.0     0.590520     0.226842     0.510921  Biso 1.000000     H
    H   1.0     0.731803     0.982931     0.435711  Biso 1.000000     H
    H   1.0     0.496145     0.078294     0.282835  Biso 1.000000     H
    H   1.0     0.091046     0.273186     0.489949  Biso 1.000000     H
    H   1.0     0.232131     0.518869     0.562949  Biso 1.000000     H
    H   1.0    -0.001180     0.423939     0.715809  Biso 1.000000     H
    H   1.0     0.409329     0.726647    -0.010912  Biso 1.000000     H
    H   1.0     0.268058     0.482525     0.064166  Biso 1.000000     H
    H   1.0     0.503873     0.578101     0.216947  Biso 1.000000     H
    C   1.0     0.962489     0.841057     0.895076  Biso 1.000000     C
    C   1.0     0.901791     0.831169     0.966558  Biso 1.000000     C
    C   1.0     0.832118     0.895472     0.981984  Biso 1.000000     C
    C   1.0     0.822584     0.969324     0.925277  Biso 1.000000     C
    C   1.0     0.883494     0.979599     0.854034  Biso 1.000000     C
    C   1.0     0.953769     0.915748     0.839372  Biso 1.000000     C
    C   1.0     0.035504     0.771504     0.878057  Biso 1.000000     C
    C   1.0     0.766866     0.885544     0.057687  Biso 1.000000     C
    C   1.0     0.873470     0.056915     0.792719  Biso 1.000000     C
    C   1.0     0.535601     0.159910     0.395138  Biso 1.000000     C
    C   1.0     0.597204     0.169351     0.466966  Biso 1.000000     C
    C   1.0     0.667488     0.105295     0.481930  Biso 1.000000     C
    C   1.0     0.676534     0.032085     0.424529  Biso 1.000000     C
    C   1.0     0.614777     0.022373     0.352881  Biso 1.000000     C
    C   1.0     0.544033     0.085995     0.338552  Biso 1.000000     C
    C   1.0     0.462153     0.229227     0.378365  Biso 1.000000     C
    C   1.0     0.734161     0.115025     0.557645  Biso 1.000000     C
    C   1.0     0.624723     0.946026     0.290591  Biso 1.000000     C
    C   1.0     0.037400     0.341095     0.604804  Biso 1.000000     C
    C   1.0     0.098066     0.331206     0.533312  Biso 1.000000     C
    C   1.0     0.167749     0.395571     0.517851  Biso 1.000000     C
    C   1.0     0.177291     0.469492     0.574521  Biso 1.000000     C
    C   1.0     0.116409     0.479756     0.645777  Biso 1.000000     C
    C   1.0     0.046153     0.415825     0.660494  Biso 1.000000     C
    C   1.0     0.964409     0.271474     0.621889  Biso 1.000000     C
    C   1.0     0.233062     0.385602     0.442220  Biso 1.000000     C
    C   1.0     0.126508     0.557081     0.707093  Biso 1.000000     C
    C   1.0     0.464355     0.659730     0.104753  Biso 1.000000     C
    C   1.0     0.402678     0.669124     0.032988  Biso 1.000000     C
    C   1.0     0.332369     0.604986     0.018011  Biso 1.000000     C
    C   1.0     0.323358     0.531732     0.075346  Biso 1.000000     C
    C   1.0     0.385184     0.522075     0.146935  Biso 1.000000     C
    C   1.0     0.455950     0.585777     0.161266  Biso 1.000000     C
    C   1.0     0.537806     0.729149     0.121578  Biso 1.000000     C
    C   1.0     0.265575     0.614731     0.942381  Biso 1.000000     C
    C   1.0     0.375230     0.445782     0.209258  Biso 1.000000     C
    O   1.0     0.089766     0.785514     0.811479  Biso 1.000000     O
    O   1.0     0.041166     0.703646     0.928677  Biso 1.000000     O
    O   1.0     0.777589     0.815837     0.107459  Biso 1.000000     O
    O   1.0     0.704831     0.945510     0.070040  Biso 1.000000     O
    O   1.0     0.802299     0.109651     0.801096  Biso 1.000000     O
    O   1.0     0.934750     0.070276     0.733191  Biso 1.000000     O
    O   1.0     0.407291     0.215796     0.311282  Biso 1.000000     O
    O   1.0     0.456638     0.296527     0.429695  Biso 1.000000     O
    O   1.0     0.724314     0.184971     0.607138  Biso 1.000000     O
    O   1.0     0.796169     0.054883     0.569929  Biso 1.000000     O
    O   1.0     0.696237     0.893571     0.299913  Biso 1.000000     O
    O   1.0     0.563560     0.933550     0.229954  Biso 1.000000     O
    O   1.0     0.910229     0.285470     0.688513  Biso 1.000000     O
    O   1.0     0.958738     0.203561     0.571295  Biso 1.000000     O
    O   1.0     0.222353     0.315804     0.392517  Biso 1.000000     O
    O   1.0     0.295184     0.445570     0.429910  Biso 1.000000     O
    O   1.0     0.197672     0.609896     0.698649  Biso 1.000000     O
    O   1.0     0.065331     0.570336     0.766734  Biso 1.000000     O
    O   1.0     0.592624     0.715796     0.188692  Biso 1.000000     O
    O   1.0     0.543301     0.796465     0.070294  Biso 1.000000     O
    O   1.0     0.275614     0.684540     0.892770  Biso 1.000000     O
    O   1.0     0.203256     0.554745     0.930324  Biso 1.000000     O
    O   1.0     0.303720     0.393211     0.199969  Biso 1.000000     O
    O   1.0     0.436344     0.433517     0.269963  Biso 1.000000     O
   Zn   1.0     0.181129     0.690694     0.799922  Biso 1.000000    Zn
   Zn   1.0     0.057640     0.562676     0.908070  Biso 1.000000    Zn
   Zn   1.0     0.316657     0.312038     0.300555  Biso 1.000000    Zn
   Zn   1.0     0.440796     0.437535     0.411528  Biso 1.000000    Zn
   Zn   1.0     0.818765     0.190645     0.700062  Biso 1.000000    Zn
   Zn   1.0     0.942141     0.062665     0.591906  Biso 1.000000    Zn
   Zn   1.0     0.683297     0.812125     0.199458  Biso 1.000000    Zn
   Zn   1.0     0.559188     0.937509     0.088447  Biso 1.000000    Zn
