#======================================================================

# CRYSTAL DATA

#----------------------------------------------------------------------

data_VESTA_phase_1


_pd_phase_name                         MOF
_cell_length_a                         15.09600
_cell_length_b                         16.33700
_cell_length_c                         16.33700
_cell_angle_alpha                      119.84900
_cell_angle_beta                       90.00100
_cell_angle_gamma                      90.00100
_symmetry_space_group_name_H-M         "P 1"
_symmetry_Int_Tables_number            1

loop_
_symmetry_equiv_pos_as_xyz
   "x, y, z"

loop_
   _atom_site_label
   _atom_site_occupancy
   _atom_site_fract_x
   _atom_site_fract_y
   _atom_site_fract_z
   _atom_site_adp_type
   _atom_site_B_iso_or_equiv
   _atom_site_type_symbol
    H   1.0     0.320636     0.853198     0.580581  Biso 1.000000     H
    H   1.0     0.820620     0.853198     0.580579  Biso 1.000000     H
    H   1.0     0.320826     0.727603     0.145494  Biso 1.000000     H
    H   1.0     0.820808     0.727598     0.145493  Biso 1.000000     H
    H   1.0     0.321032     0.418988     0.272497  Biso 1.000000     H
    H   1.0     0.821015     0.418992     0.272501  Biso 1.000000     H
    H   1.0     0.070429     0.146917     0.419461  Biso 1.000000     H
    H   1.0     0.570412     0.146917     0.419463  Biso 1.000000     H
    H   1.0     0.070522     0.272411     0.854619  Biso 1.000000     H
    H   1.0     0.570507     0.272411     0.854618  Biso 1.000000     H
    H   1.0     0.070798     0.581181     0.727672  Biso 1.000000     H
    H   1.0     0.570782     0.581181     0.727671  Biso 1.000000     H
    H   1.0     0.070807     0.727685     0.581192  Biso 1.000000     H
    H   1.0     0.570791     0.727686     0.581193  Biso 1.000000     H
    H   1.0     0.070437     0.419456     0.146923  Biso 1.000000     H
    H   1.0     0.570421     0.419457     0.146923  Biso 1.000000     H
    H   1.0     0.070530     0.854617     0.272401  Biso 1.000000     H
    H   1.0     0.570514     0.854617     0.272401  Biso 1.000000     H
    H   1.0     0.321039     0.272489     0.418976  Biso 1.000000     H
    H   1.0     0.821023     0.272491     0.418978  Biso 1.000000     H
    H   1.0     0.320643     0.580587     0.853194  Biso 1.000000     H
    H   1.0     0.820626     0.580584     0.853194  Biso 1.000000     H
    H   1.0     0.320832     0.145494     0.727608  Biso 1.000000     H
    H   1.0     0.820815     0.145494     0.727606  Biso 1.000000     H
    H   1.0     0.033689     0.000042     0.532845  Biso 1.000000     H
    H   1.0     0.533673     0.000042     0.532845  Biso 1.000000     H
    H   1.0     0.033688     0.532845     0.000044  Biso 1.000000     H
    H   1.0     0.533673     0.532845     0.000044  Biso 1.000000     H
    H   1.0     0.033551     0.467706     0.467706  Biso 1.000000     H
    H   1.0     0.533535     0.467707     0.467706  Biso 1.000000     H
    H   1.0     0.283321    -0.000017     0.467291  Biso 1.000000     H
    H   1.0     0.783306    -0.000017     0.467290  Biso 1.000000     H
    H   1.0     0.283320     0.467290    -0.000018  Biso 1.000000     H
    H   1.0     0.783305     0.467289    -0.000017  Biso 1.000000     H
    H   1.0     0.283263     0.532427     0.532426  Biso 1.000000     H
    H   1.0     0.783248     0.532429     0.532427  Biso 1.000000     H
    C   1.0     0.353665     0.918493     0.595071  Biso 1.000000     C
    C   1.0     0.853651     0.918492     0.595072  Biso 1.000000     C
    C   1.0     0.432314     0.914859     0.547624  Biso 1.000000     C
    C   1.0     0.932298     0.914859     0.547621  Biso 1.000000     C
    C   1.0     0.472396     0.824939     0.474802  Biso 1.000000     C
    C   1.0     0.972381     0.824938     0.474802  Biso 1.000000     C
    C   1.0     0.353753     0.676487     0.080408  Biso 1.000000     C
    C   1.0     0.853740     0.676490     0.080408  Biso 1.000000     C
    C   1.0     0.432363     0.632893     0.084562  Biso 1.000000     C
    C   1.0     0.932344     0.632886     0.084562  Biso 1.000000     C
    C   1.0     0.472450     0.650495     0.174797  Biso 1.000000     C
    C   1.0     0.972435     0.650495     0.174797  Biso 1.000000     C
    C   1.0     0.353939     0.404740     0.323592  Biso 1.000000     C
    C   1.0     0.853922     0.404744     0.323597  Biso 1.000000     C
    C   1.0     0.432409     0.452473     0.367423  Biso 1.000000     C
    C   1.0     0.932395     0.452472     0.367422  Biso 1.000000     C
    C   1.0     0.472499     0.525235     0.349906  Biso 1.000000     C
    C   1.0     0.972484     0.525237     0.349907  Biso 1.000000     C
    C   1.0     0.103441     0.081602     0.404924  Biso 1.000000     C
    C   1.0     0.603425     0.081602     0.404925  Biso 1.000000     C
    C   1.0     0.182012     0.085207     0.452474  Biso 1.000000     C
    C   1.0     0.681996     0.085207     0.452474  Biso 1.000000     C
    C   1.0     0.221953     0.175178     0.525372  Biso 1.000000     C
    C   1.0     0.721937     0.175178     0.525372  Biso 1.000000     C
    C   1.0     0.103475     0.323500     0.919701  Biso 1.000000     C
    C   1.0     0.603457     0.323503     0.919701  Biso 1.000000     C
    C   1.0     0.182008     0.367193     0.915517  Biso 1.000000     C
    C   1.0     0.681993     0.367191     0.915517  Biso 1.000000     C
    C   1.0     0.221907     0.349582     0.825203  Biso 1.000000     C
    C   1.0     0.721892     0.349582     0.825204  Biso 1.000000     C
    C   1.0     0.103708     0.595473     0.676609  Biso 1.000000     C
    C   1.0     0.603689     0.595468     0.676604  Biso 1.000000     C
    C   1.0     0.182130     0.547677     0.632719  Biso 1.000000     C
    C   1.0     0.682117     0.547682     0.632724  Biso 1.000000     C
    C   1.0     0.222012     0.474783     0.650167  Biso 1.000000     C
    C   1.0     0.721996     0.474783     0.650167  Biso 1.000000     C
    C   1.0     0.103710     0.676612     0.595475  Biso 1.000000     C
    C   1.0     0.603690     0.676608     0.595470  Biso 1.000000     C
    C   1.0     0.182124     0.632711     0.547668  Biso 1.000000     C
    C   1.0     0.682111     0.632715     0.547673  Biso 1.000000     C
    C   1.0     0.222017     0.650177     0.474791  Biso 1.000000     C
    C   1.0     0.722001     0.650178     0.474791  Biso 1.000000     C
    C   1.0     0.103440     0.404928     0.081606  Biso 1.000000     C
    C   1.0     0.603422     0.404931     0.081606  Biso 1.000000     C
    C   1.0     0.182006     0.452485     0.085208  Biso 1.000000     C
    C   1.0     0.681992     0.452482     0.085209  Biso 1.000000     C
    C   1.0     0.221957     0.525368     0.175180  Biso 1.000000     C
    C   1.0     0.721941     0.525368     0.175180  Biso 1.000000     C
    C   1.0     0.103477     0.919702     0.323494  Biso 1.000000     C
    C   1.0     0.603462     0.919701     0.323495  Biso 1.000000     C
    C   1.0     0.181998     0.915520     0.367206  Biso 1.000000     C
    C   1.0     0.681983     0.915520     0.367207  Biso 1.000000     C
    C   1.0     0.221912     0.825206     0.349574  Biso 1.000000     C
    C   1.0     0.721897     0.825206     0.349574  Biso 1.000000     C
    C   1.0     0.353941     0.323592     0.404736  Biso 1.000000     C
    C   1.0     0.853923     0.323596     0.404740  Biso 1.000000     C
    C   1.0     0.432403     0.367433     0.452479  Biso 1.000000     C
    C   1.0     0.932388     0.367433     0.452479  Biso 1.000000     C
    C   1.0     0.472503     0.349899     0.525226  Biso 1.000000     C
    C   1.0     0.972488     0.349899     0.525227  Biso 1.000000     C
    C   1.0     0.353662     0.595065     0.918489  Biso 1.000000     C
    C   1.0     0.853650     0.595068     0.918489  Biso 1.000000     C
    C   1.0     0.432312     0.547619     0.914857  Biso 1.000000     C
    C   1.0     0.932293     0.547613     0.914857  Biso 1.000000     C
    C   1.0     0.472399     0.474807     0.824935  Biso 1.000000     C
    C   1.0     0.972385     0.474807     0.824935  Biso 1.000000     C
    C   1.0     0.353759     0.080408     0.676493  Biso 1.000000     C
    C   1.0     0.853745     0.080407     0.676494  Biso 1.000000     C
    C   1.0     0.432353     0.084560     0.632875  Biso 1.000000     C
    C   1.0     0.932336     0.084560     0.632871  Biso 1.000000     C
    C   1.0     0.472455     0.174796     0.650501  Biso 1.000000     C
    C   1.0     0.972440     0.174796     0.650500  Biso 1.000000     C
    C   1.0     0.472589    -0.000166     0.568020  Biso 1.000000     C
    C   1.0     0.972576    -0.000166     0.568023  Biso 1.000000     C
    C   1.0     0.472583     0.568013    -0.000163  Biso 1.000000     C
    C   1.0     0.972572     0.568018    -0.000163  Biso 1.000000     C
    C   1.0     0.472584     0.432310     0.432309  Biso 1.000000     C
    C   1.0     0.972568     0.432313     0.432311  Biso 1.000000     C
    C   1.0     0.222295     0.000216     0.432039  Biso 1.000000     C
    C   1.0     0.722280     0.000216     0.432038  Biso 1.000000     C
    C   1.0     0.222292     0.432041     0.000216  Biso 1.000000     C
    C   1.0     0.722274     0.432044     0.000216  Biso 1.000000     C
    C   1.0     0.222340     0.567862     0.567862  Biso 1.000000     C
    C   1.0     0.722320     0.567858     0.567857  Biso 1.000000     C
    N   1.0     0.314930    -0.000689     0.659068  Biso 1.000000     N
    N   1.0     0.814913    -0.000689     0.659064  Biso 1.000000     N
    N   1.0     0.314932     0.659071    -0.000689  Biso 1.000000     N
    N   1.0     0.814912     0.659064    -0.000689  Biso 1.000000     N
    N   1.0     0.315212     0.340777     0.340775  Biso 1.000000     N
    N   1.0     0.815196     0.340779     0.340777  Biso 1.000000     N
    N   1.0     0.064666     0.000797     0.340936  Biso 1.000000     N
    N   1.0     0.564650     0.000797     0.340937  Biso 1.000000     N
    N   1.0     0.064667     0.340936     0.000802  Biso 1.000000     N
    N   1.0     0.564652     0.340935     0.000802  Biso 1.000000     N
    N   1.0     0.064981     0.659439     0.659438  Biso 1.000000     N
    N   1.0     0.564967     0.659442     0.659442  Biso 1.000000     N
    O   1.0     0.432808     0.744762     0.445635  Biso 1.000000     O
    O   1.0     0.932793     0.744761     0.445635  Biso 1.000000     O
    O   1.0     0.047509     0.826901     0.440976  Biso 1.000000     O
    O   1.0     0.547493     0.826901     0.440976  Biso 1.000000     O
    O   1.0     0.432805     0.701627     0.254836  Biso 1.000000     O
    O   1.0     0.932789     0.701627     0.254835  Biso 1.000000     O
    O   1.0     0.047537     0.614828     0.173190  Biso 1.000000     O
    O   1.0     0.547521     0.614828     0.173190  Biso 1.000000     O
    O   1.0     0.432918     0.554343     0.298708  Biso 1.000000     O
    O   1.0     0.932903     0.554343     0.298708  Biso 1.000000     O
    O   1.0     0.047574     0.559132     0.385615  Biso 1.000000     O
    O   1.0     0.547558     0.559132     0.385615  Biso 1.000000     O
    O   1.0     0.182343     0.255264     0.554292  Biso 1.000000     O
    O   1.0     0.682327     0.255264     0.554292  Biso 1.000000     O
    O   1.0     0.296927     0.173299     0.559508  Biso 1.000000     O
    O   1.0     0.796911     0.173299     0.559507  Biso 1.000000     O
    O   1.0     0.182181     0.298321     0.745289  Biso 1.000000     O
    O   1.0     0.682166     0.298322     0.745289  Biso 1.000000     O
    O   1.0     0.296883     0.385402     0.826678  Biso 1.000000     O
    O   1.0     0.796867     0.385402     0.826678  Biso 1.000000     O
    O   1.0     0.182389     0.445931     0.701514  Biso 1.000000     O
    O   1.0     0.682373     0.445931     0.701514  Biso 1.000000     O
    O   1.0     0.296925     0.440542     0.614211  Biso 1.000000     O
    O   1.0     0.796909     0.440543     0.614212  Biso 1.000000     O
    O   1.0     0.182390     0.701518     0.445933  Biso 1.000000     O
    O   1.0     0.682374     0.701519     0.445934  Biso 1.000000     O
    O   1.0     0.296923     0.614210     0.440539  Biso 1.000000     O
    O   1.0     0.796907     0.614210     0.440540  Biso 1.000000     O
    O   1.0     0.182345     0.554295     0.255266  Biso 1.000000     O
    O   1.0     0.682329     0.554295     0.255266  Biso 1.000000     O
    O   1.0     0.296924     0.559515     0.173298  Biso 1.000000     O
    O   1.0     0.796908     0.559515     0.173298  Biso 1.000000     O
    O   1.0     0.182182     0.745292     0.298321  Biso 1.000000     O
    O   1.0     0.682167     0.745292     0.298322  Biso 1.000000     O
    O   1.0     0.296880     0.826683     0.385409  Biso 1.000000     O
    O   1.0     0.796865     0.826683     0.385409  Biso 1.000000     O
    O   1.0     0.432919     0.298706     0.554338  Biso 1.000000     O
    O   1.0     0.932904     0.298706     0.554339  Biso 1.000000     O
    O   1.0     0.047572     0.385618     0.559132  Biso 1.000000     O
    O   1.0     0.547557     0.385618     0.559132  Biso 1.000000     O
    O   1.0     0.432809     0.445634     0.744758  Biso 1.000000     O
    O   1.0     0.932794     0.445634     0.744758  Biso 1.000000     O
    O   1.0     0.047506     0.440971     0.826899  Biso 1.000000     O
    O   1.0     0.547490     0.440971     0.826900  Biso 1.000000     O
    O   1.0     0.432806     0.254834     0.701625  Biso 1.000000     O
    O   1.0     0.932791     0.254834     0.701624  Biso 1.000000     O
    O   1.0     0.047535     0.173187     0.614820  Biso 1.000000     O
    O   1.0     0.547519     0.173187     0.614820  Biso 1.000000     O
    Y   1.0     0.067171     0.667034     0.333192  Biso 1.000000     Y
    Y   1.0     0.567156     0.667034     0.333192  Biso 1.000000     Y
    Y   1.0     0.317237     0.333031     0.666866  Biso 1.000000     Y
    Y   1.0     0.817222     0.333031     0.666866  Biso 1.000000     Y
    Y   1.0     0.317239     0.666869     0.333031  Biso 1.000000     Y
    Y   1.0     0.817224     0.666870     0.333031  Biso 1.000000     Y
    Y   1.0     0.067173     0.333191     0.667031  Biso 1.000000     Y
    Y   1.0     0.567158     0.333191     0.667031  Biso 1.000000     Y
