#======================================================================

# CRYSTAL DATA

#----------------------------------------------------------------------

data_VESTA_phase_1


_pd_phase_name                         MOF
_cell_length_a                         13.79000
_cell_length_b                         14.36700
_cell_length_c                         21.45600
_cell_angle_alpha                      90.11800
_cell_angle_beta                       90.02100
_cell_angle_gamma                      89.90900
_symmetry_space_group_name_H-M         "P 1"
_symmetry_Int_Tables_number            1

loop_
_symmetry_equiv_pos_as_xyz
   "x, y, z"

loop_
   _atom_site_label
   _atom_site_occupancy
   _atom_site_fract_x
   _atom_site_fract_y
   _atom_site_fract_z
   _atom_site_adp_type
   _atom_site_B_iso_or_equiv
   _atom_site_type_symbol
    H   1.0     0.470780     0.380280     0.819370  Biso 1.000000     H
    H   1.0     0.545408     0.214030     0.742179  Biso 1.000000     H
    H   1.0     0.479192     0.416007     0.706175  Biso 1.000000     H
    H   1.0     0.559627     0.254109     0.626998  Biso 1.000000     H
    H   1.0     0.360389     0.029174     0.863343  Biso 1.000000     H
    H   1.0     0.180415     0.026946     0.861549  Biso 1.000000     H
    H   1.0     0.185579     0.176082     0.036711  Biso 1.000000     H
    H   1.0     0.366436     0.172432     0.030655  Biso 1.000000     H
    H   1.0     0.036020     0.144677     0.995977  Biso 1.000000     H
    H   1.0     0.019359     0.024964     0.876655  Biso 1.000000     H
    H   1.0     0.711614     0.151109     0.021798  Biso 1.000000     H
    H   1.0     0.891149     0.143077     0.015791  Biso 1.000000     H
    H   1.0     0.856626     0.003387     0.837895  Biso 1.000000     H
    H   1.0     0.677529     0.019934     0.851829  Biso 1.000000     H
    H   1.0     0.529787     0.880996     0.681496  Biso 1.000000     H
    H   1.0     0.453682     0.714136     0.756803  Biso 1.000000     H
    H   1.0     0.520915     0.915140     0.794431  Biso 1.000000     H
    H   1.0     0.439387     0.753817     0.872964  Biso 1.000000     H
    H   1.0     0.639438     0.530200     0.636120  Biso 1.000000     H
    H   1.0     0.819435     0.528352     0.638351  Biso 1.000000     H
    H   1.0     0.814478     0.676109     0.463088  Biso 1.000000     H
    H   1.0     0.633644     0.672198     0.468700  Biso 1.000000     H
    H   1.0     0.963882     0.645400     0.504232  Biso 1.000000     H
    H   1.0     0.980743     0.525131     0.622987  Biso 1.000000     H
    H   1.0     0.287808     0.650684     0.477772  Biso 1.000000     H
    H   1.0     0.108366     0.642846     0.484010  Biso 1.000000     H
    H   1.0     0.143732     0.504022     0.661785  Biso 1.000000     H
    H   1.0     0.322761     0.520178     0.647571  Biso 1.000000     H
    H   1.0     0.529222     0.619739     0.180624  Biso 1.000000     H
    H   1.0     0.454595     0.785990     0.257815  Biso 1.000000     H
    H   1.0     0.520810     0.584012     0.293818  Biso 1.000000     H
    H   1.0     0.440377     0.745910     0.372996  Biso 1.000000     H
    H   1.0     0.639614     0.970838     0.136651  Biso 1.000000     H
    H   1.0     0.819587     0.973064     0.138447  Biso 1.000000     H
    H   1.0     0.814425     0.823933     0.963282  Biso 1.000000     H
    H   1.0     0.633568     0.827585     0.969337  Biso 1.000000     H
    H   1.0     0.963983     0.855336     0.004018  Biso 1.000000     H
    H   1.0     0.980645     0.975047     0.123341  Biso 1.000000     H
    H   1.0     0.288389     0.848906     0.978196  Biso 1.000000     H
    H   1.0     0.108854     0.856935     0.984203  Biso 1.000000     H
    H   1.0     0.143378     0.996626     0.162099  Biso 1.000000     H
    H   1.0     0.322475     0.980081     0.148164  Biso 1.000000     H
    H   1.0     0.470226     0.119018     0.318498  Biso 1.000000     H
    H   1.0     0.546320     0.285881     0.243190  Biso 1.000000     H
    H   1.0     0.479097     0.084873     0.205563  Biso 1.000000     H
    H   1.0     0.560614     0.246201     0.127029  Biso 1.000000     H
    H   1.0     0.360564     0.469814     0.363874  Biso 1.000000     H
    H   1.0     0.180567     0.471662     0.361644  Biso 1.000000     H
    H   1.0     0.185526     0.323906     0.536907  Biso 1.000000     H
    H   1.0     0.366360     0.327818     0.531294  Biso 1.000000     H
    H   1.0     0.036121     0.354613     0.495763  Biso 1.000000     H
    H   1.0     0.019261     0.474893     0.377013  Biso 1.000000     H
    H   1.0     0.712193     0.349326     0.522220  Biso 1.000000     H
    H   1.0     0.891635     0.357166     0.515984  Biso 1.000000     H
    H   1.0     0.856273     0.496007     0.338214  Biso 1.000000     H
    H   1.0     0.677244     0.479849     0.352426  Biso 1.000000     H
    H   1.0     0.000000     0.618786     0.318571  Biso 1.000000     H
    H   1.0     0.953892     0.786077     0.243186  Biso 1.000000     H
    H   1.0     0.000000     0.584715     0.205621  Biso 1.000000     H
    H   1.0     0.939589     0.746449     0.127003  Biso 1.000000     H
    H   1.0     0.139099     0.969481     0.363782  Biso 1.000000     H
    H   1.0     0.319086     0.971438     0.361571  Biso 1.000000     H
    H   1.0     0.314879     0.824051     0.536973  Biso 1.000000     H
    H   1.0     0.134013     0.827919     0.531368  Biso 1.000000     H
    H   1.0     0.464112     0.854631     0.495750  Biso 1.000000     H
    H   1.0     0.480387     0.975124     0.377089  Biso 1.000000     H
    H   1.0     0.788093     0.849467     0.522226  Biso 1.000000     H
    H   1.0     0.608613     0.857348     0.516014  Biso 1.000000     H
    H   1.0     0.643286     0.996211     0.338255  Biso 1.000000     H
    H   1.0     0.822387     0.980002     0.352434  Biso 1.000000     H
    H   1.0    -0.029487     0.119681     0.180582  Biso 1.000000     H
    H   1.0     0.045574     0.285601     0.257731  Biso 1.000000     H
    H   1.0    -0.021006     0.083962     0.293766  Biso 1.000000     H
    H   1.0     0.059678     0.245563     0.372925  Biso 1.000000     H
    H   1.0     0.860265     0.470835     0.136577  Biso 1.000000     H
    H   1.0     0.680287     0.472935     0.138379  Biso 1.000000     H
    H   1.0     0.685843     0.324039     0.963123  Biso 1.000000     H
    H   1.0     0.866683     0.327754     0.969196  Biso 1.000000     H
    H   1.0     0.536182     0.355348     0.003864  Biso 1.000000     H
    H   1.0     0.519254     0.474592     0.123394  Biso 1.000000     H
    H   1.0     0.211698     0.348966     0.978100  Biso 1.000000     H
    H   1.0     0.391214     0.356955     0.984087  Biso 1.000000     H
    H   1.0     0.356525     0.495887     0.162259  Biso 1.000000     H
    H   1.0     0.177462     0.479404     0.148332  Biso 1.000000     H
    H   1.0    -0.029413     0.381232     0.681422  Biso 1.000000     H
    H   1.0     0.046105     0.213938     0.756807  Biso 1.000000     H
    H   1.0    -0.020657     0.415301     0.794372  Biso 1.000000     H
    H   1.0     0.060407     0.253565     0.872991  Biso 1.000000     H
    H   1.0     0.860907     0.030537     0.636213  Biso 1.000000     H
    H   1.0     0.680920     0.028582     0.638426  Biso 1.000000     H
    H   1.0     0.685123     0.175962     0.463022  Biso 1.000000     H
    H   1.0     0.865989     0.172094     0.468625  Biso 1.000000     H
    H   1.0     0.535892     0.145382     0.504245  Biso 1.000000     H
    H   1.0     0.519616     0.024903     0.622913  Biso 1.000000     H
    H   1.0     0.211913     0.150545     0.477767  Biso 1.000000     H
    H   1.0     0.391393     0.142666     0.483982  Biso 1.000000     H
    H   1.0     0.356716     0.003819     0.661746  Biso 1.000000     H
    H   1.0     0.177615     0.020026     0.647564  Biso 1.000000     H
    H   1.0     0.000000     0.880336     0.819411  Biso 1.000000     H
    H   1.0     0.954431     0.714417     0.742262  Biso 1.000000     H
    H   1.0     0.000000     0.916055     0.706227  Biso 1.000000     H
    H   1.0     0.940325     0.754455     0.627069  Biso 1.000000     H
    H   1.0     0.139738     0.529181     0.863416  Biso 1.000000     H
    H   1.0     0.319717     0.527081     0.861615  Biso 1.000000     H
    H   1.0     0.314159     0.675976     0.036871  Biso 1.000000     H
    H   1.0     0.133319     0.672262     0.030797  Biso 1.000000     H
    H   1.0     0.463821     0.644666     0.996131  Biso 1.000000     H
    H   1.0     0.480749     0.525428     0.876598  Biso 1.000000     H
    H   1.0     0.788305     0.651049     0.021893  Biso 1.000000     H
    H   1.0     0.608789     0.643060     0.015907  Biso 1.000000     H
    H   1.0     0.643478     0.504133     0.837734  Biso 1.000000     H
    H   1.0     0.822540     0.520615     0.851660  Biso 1.000000     H
    C   1.0     0.508087     0.249026     0.865091  Biso 1.000000     C
    C   1.0     0.496953     0.309954     0.809458  Biso 1.000000     C
    C   1.0     0.518696     0.284747     0.750349  Biso 1.000000     C
    C   1.0     0.507994     0.346034     0.697706  Biso 1.000000     C
    C   1.0     0.530396     0.322671     0.638313  Biso 1.000000     C
    C   1.0     0.516316     0.386724     0.584851  Biso 1.000000     C
    C   1.0     0.318523     0.060394     0.901053  Biso 1.000000     C
    C   1.0     0.217987     0.059748     0.900491  Biso 1.000000     C
    C   1.0     0.166394     0.101005     0.950085  Biso 1.000000     C
    C   1.0     0.221996     0.142347     0.997617  Biso 1.000000     C
    C   1.0     0.322437     0.140030     0.994600  Biso 1.000000     C
    C   1.0     0.061304     0.104776     0.955749  Biso 1.000000     C
    C   1.0     0.995614     0.065278     0.917143  Biso 1.000000     C
    C   1.0     0.747351     0.119693     0.981688  Biso 1.000000     C
    C   1.0     0.847574     0.114806     0.977761  Biso 1.000000     C
    C   1.0     0.890897     0.072899     0.925223  Biso 1.000000     C
    C   1.0     0.827718     0.037638     0.879344  Biso 1.000000     C
    C   1.0     0.728052     0.046316     0.886635  Biso 1.000000     C
    C   1.0     0.491988     0.750958     0.634182  Biso 1.000000     C
    C   1.0     0.503146     0.810709     0.690543  Biso 1.000000     C
    C   1.0     0.480871     0.784728     0.749344  Biso 1.000000     C
    C   1.0     0.491675     0.845359     0.802457  Biso 1.000000     C
    C   1.0     0.469030     0.822094     0.861755  Biso 1.000000     C
    C   1.0     0.483610     0.886401     0.915217  Biso 1.000000     C
    C   1.0     0.681359     0.561181     0.598480  Biso 1.000000     C
    C   1.0     0.781888     0.560745     0.599294  Biso 1.000000     C
    C   1.0     0.833540     0.601670     0.549776  Biso 1.000000     C
    C   1.0     0.778002     0.642629     0.502109  Biso 1.000000     C
    C   1.0     0.677566     0.640124     0.504877  Biso 1.000000     C
    C   1.0     0.938621     0.605423     0.544280  Biso 1.000000     C
    C   1.0     0.004360     0.565653     0.582708  Biso 1.000000     C
    C   1.0     0.252301     0.619486     0.517908  Biso 1.000000     C
    C   1.0     0.152107     0.614771     0.521981  Biso 1.000000     C
    C   1.0     0.109048     0.573167     0.574553  Biso 1.000000     C
    C   1.0     0.172441     0.538042     0.620322  Biso 1.000000     C
    C   1.0     0.272064     0.546523     0.612879  Biso 1.000000     C
    C   1.0     0.491915     0.750992     0.134903  Biso 1.000000     C
    C   1.0     0.503049     0.690065     0.190536  Biso 1.000000     C
    C   1.0     0.481307     0.715273     0.249645  Biso 1.000000     C
    C   1.0     0.492008     0.653985     0.302288  Biso 1.000000     C
    C   1.0     0.469608     0.677348     0.361681  Biso 1.000000     C
    C   1.0     0.483688     0.613294     0.415142  Biso 1.000000     C
    C   1.0     0.681480     0.939619     0.098941  Biso 1.000000     C
    C   1.0     0.782016     0.940264     0.099504  Biso 1.000000     C
    C   1.0     0.833609     0.899008     0.049909  Biso 1.000000     C
    C   1.0     0.778007     0.857667     0.002376  Biso 1.000000     C
    C   1.0     0.677567     0.859986     0.005393  Biso 1.000000     C
    C   1.0     0.938699     0.895236     0.044246  Biso 1.000000     C
    C   1.0     0.004389     0.934734     0.082852  Biso 1.000000     C
    C   1.0     0.252653     0.880322     0.018306  Biso 1.000000     C
    C   1.0     0.152429     0.885207     0.022233  Biso 1.000000     C
    C   1.0     0.109107     0.927113     0.074772  Biso 1.000000     C
    C   1.0     0.172285     0.962375     0.120650  Biso 1.000000     C
    C   1.0     0.271952     0.953699     0.113359  Biso 1.000000     C
    C   1.0     0.508017     0.249058     0.365811  Biso 1.000000     C
    C   1.0     0.496863     0.189306     0.309450  Biso 1.000000     C
    C   1.0     0.519136     0.215287     0.250649  Biso 1.000000     C
    C   1.0     0.508333     0.154656     0.197536  Biso 1.000000     C
    C   1.0     0.530975     0.177922     0.138238  Biso 1.000000     C
    C   1.0     0.516395     0.113615     0.084776  Biso 1.000000     C
    C   1.0     0.318644     0.438834     0.401514  Biso 1.000000     C
    C   1.0     0.218115     0.439270     0.400701  Biso 1.000000     C
    C   1.0     0.166463     0.398346     0.450220  Biso 1.000000     C
    C   1.0     0.222002     0.357387     0.497886  Biso 1.000000     C
    C   1.0     0.322437     0.359892     0.495117  Biso 1.000000     C
    C   1.0     0.061382     0.394593     0.455716  Biso 1.000000     C
    C   1.0     0.995643     0.434366     0.417290  Biso 1.000000     C
    C   1.0     0.747700     0.380528     0.482085  Biso 1.000000     C
    C   1.0     0.847895     0.385243     0.478014  Biso 1.000000     C
    C   1.0     0.890955     0.426853     0.425443  Biso 1.000000     C
    C   1.0     0.827563     0.461982     0.379675  Biso 1.000000     C
    C   1.0     0.727940     0.453500     0.387117  Biso 1.000000     C
    C   1.0     0.991932     0.749055     0.365831  Biso 1.000000     C
    C   1.0     0.000000     0.689221     0.309493  Biso 1.000000     C
    C   1.0     0.980869     0.715331     0.250670  Biso 1.000000     C
    C   1.0     0.991599     0.654650     0.197568  Biso 1.000000     C
    C   1.0     0.969068     0.678026     0.138250  Biso 1.000000     C
    C   1.0     0.983571     0.613603     0.084829  Biso 1.000000     C
    C   1.0     0.181175     0.938629     0.401464  Biso 1.000000     C
    C   1.0     0.281701     0.939131     0.400664  Biso 1.000000     C
    C   1.0     0.333558     0.898351     0.450230  Biso 1.000000     C
    C   1.0     0.278228     0.857450     0.497927  Biso 1.000000     C
    C   1.0     0.177778     0.859914     0.495155  Biso 1.000000     C
    C   1.0     0.438662     0.894660     0.455728  Biso 1.000000     C
    C   1.0     0.504217     0.934524     0.417329  Biso 1.000000     C
    C   1.0     0.752429     0.880673     0.482097  Biso 1.000000     C
    C   1.0     0.652214     0.885406     0.478036  Biso 1.000000     C
    C   1.0     0.608943     0.927024     0.425473  Biso 1.000000     C
    C   1.0     0.672162     0.962160     0.379704  Biso 1.000000     C
    C   1.0     0.771825     0.953660     0.387133  Biso 1.000000     C
    C   1.0     0.008063     0.250701     0.134810  Biso 1.000000     C
    C   1.0    -0.003158     0.189882     0.190469  Biso 1.000000     C
    C   1.0     0.018707     0.215013     0.249572  Biso 1.000000     C
    C   1.0     0.007909     0.153808     0.302230  Biso 1.000000     C
    C   1.0     0.030360     0.177113     0.361624  Biso 1.000000     C
    C   1.0     0.016198     0.113184     0.415116  Biso 1.000000     C
    C   1.0     0.818479     0.439622     0.098855  Biso 1.000000     C
    C   1.0     0.717942     0.440195     0.099422  Biso 1.000000     C
    C   1.0     0.666456     0.398961     0.049806  Biso 1.000000     C
    C   1.0     0.722169     0.357732     0.002244  Biso 1.000000     C
    C   1.0     0.822603     0.360095     0.005266  Biso 1.000000     C
    C   1.0     0.561375     0.395129     0.044148  Biso 1.000000     C
    C   1.0     0.495578     0.434439     0.082834  Biso 1.000000     C
    C   1.0     0.247396     0.380224     0.018259  Biso 1.000000     C
    C   1.0     0.347611     0.385096     0.022170  Biso 1.000000     C
    C   1.0     0.390877     0.426797     0.074774  Biso 1.000000     C
    C   1.0     0.327660     0.461839     0.120742  Biso 1.000000     C
    C   1.0     0.228011     0.453186     0.113459  Biso 1.000000     C
    C   1.0     0.008072     0.250962     0.634162  Biso 1.000000     C
    C   1.0    -0.002982     0.310796     0.690500  Biso 1.000000     C
    C   1.0     0.019130     0.284684     0.749323  Biso 1.000000     C
    C   1.0     0.008402     0.345365     0.802425  Biso 1.000000     C
    C   1.0     0.030930     0.321989     0.861743  Biso 1.000000     C
    C   1.0     0.016429     0.386413     0.915163  Biso 1.000000     C
    C   1.0     0.818830     0.061388     0.598531  Biso 1.000000     C
    C   1.0     0.718304     0.060887     0.599332  Biso 1.000000     C
    C   1.0     0.666446     0.101666     0.549767  Biso 1.000000     C
    C   1.0     0.721774     0.142565     0.502068  Biso 1.000000     C
    C   1.0     0.822224     0.140101     0.504839  Biso 1.000000     C
    C   1.0     0.561342     0.105357     0.544269  Biso 1.000000     C
    C   1.0     0.495787     0.065497     0.582670  Biso 1.000000     C
    C   1.0     0.247576     0.119341     0.517898  Biso 1.000000     C
    C   1.0     0.347791     0.114610     0.521960  Biso 1.000000     C
    C   1.0     0.391061     0.072997     0.574525  Biso 1.000000     C
    C   1.0     0.327840     0.037866     0.620295  Biso 1.000000     C
    C   1.0     0.228177     0.046364     0.612865  Biso 1.000000     C
    C   1.0     0.991943     0.749316     0.865183  Biso 1.000000     C
    C   1.0     0.000000     0.810134     0.809524  Biso 1.000000     C
    C   1.0     0.981299     0.785005     0.750421  Biso 1.000000     C
    C   1.0     0.992098     0.846209     0.697763  Biso 1.000000     C
    C   1.0     0.969644     0.822905     0.638369  Biso 1.000000     C
    C   1.0     0.983805     0.886834     0.584877  Biso 1.000000     C
    C   1.0     0.181524     0.560394     0.901138  Biso 1.000000     C
    C   1.0     0.282061     0.559821     0.900572  Biso 1.000000     C
    C   1.0     0.333547     0.601054     0.950188  Biso 1.000000     C
    C   1.0     0.277834     0.642283     0.997750  Biso 1.000000     C
    C   1.0     0.177400     0.639920     0.994727  Biso 1.000000     C
    C   1.0     0.438628     0.604887     0.955846  Biso 1.000000     C
    C   1.0     0.504425     0.565579     0.917159  Biso 1.000000     C
    C   1.0     0.752607     0.619792     0.981734  Biso 1.000000     C
    C   1.0     0.652392     0.614920     0.977823  Biso 1.000000     C
    C   1.0     0.609126     0.573220     0.925220  Biso 1.000000     C
    C   1.0     0.672343     0.538179     0.879251  Biso 1.000000     C
    C   1.0     0.771991     0.546832     0.886534  Biso 1.000000     C
    N   1.0     0.371182     0.099131     0.947531  Biso 1.000000     N
    N   1.0     0.687236     0.086680     0.937087  Biso 1.000000     N
    N   1.0     0.628768     0.599391     0.551820  Biso 1.000000     N
    N   1.0     0.312635     0.586582     0.562390  Biso 1.000000     N
    N   1.0     0.628822     0.900885     0.052461  Biso 1.000000     N
    N   1.0     0.312768     0.913335     0.062907  Biso 1.000000     N
    N   1.0     0.371235     0.400624     0.448174  Biso 1.000000     N
    N   1.0     0.687367     0.413437     0.437605  Biso 1.000000     N
    N   1.0     0.128777     0.900495     0.448159  Biso 1.000000     N
    N   1.0     0.812598     0.913611     0.437622  Biso 1.000000     N
    N   1.0     0.871237     0.400975     0.052355  Biso 1.000000     N
    N   1.0     0.187245     0.413023     0.062943  Biso 1.000000     N
    N   1.0     0.871227     0.099520     0.551835  Biso 1.000000     N
    N   1.0     0.187405     0.086409     0.562373  Biso 1.000000     N
    N   1.0     0.128766     0.599042     0.947638  Biso 1.000000     N
    N   1.0     0.812758     0.586994     0.937050  Biso 1.000000     N
    O   1.0     0.525410     0.161702     0.855968  Biso 1.000000     O
    O   1.0     0.500026     0.286068     0.918209  Biso 1.000000     O
    O   1.0     0.475611     0.464841     0.594780  Biso 1.000000     O
    O   1.0     0.545795     0.355779     0.532113  Biso 1.000000     O
    O   1.0     0.474517     0.663572     0.642502  Biso 1.000000     O
    O   1.0     0.500124     0.789076     0.581546  Biso 1.000000     O
    O   1.0     0.524417     0.964215     0.904919  Biso 1.000000     O
    O   1.0     0.454475     0.856125     0.968094  Biso 1.000000     O
    O   1.0     0.474594     0.838317     0.144025  Biso 1.000000     O
    O   1.0     0.499977     0.713951     0.081785  Biso 1.000000     O
    O   1.0     0.524390     0.535176     0.405212  Biso 1.000000     O
    O   1.0     0.454207     0.644238     0.467881  Biso 1.000000     O
    O   1.0     0.525487     0.336445     0.357490  Biso 1.000000     O
    O   1.0     0.499881     0.210941     0.418447  Biso 1.000000     O
    O   1.0     0.475586     0.035802     0.095073  Biso 1.000000     O
    O   1.0     0.545528     0.143892     0.031898  Biso 1.000000     O
    O   1.0     0.974528     0.836500     0.357483  Biso 1.000000     O
    O   1.0     0.000000     0.710953     0.418482  Biso 1.000000     O
    O   1.0     0.024295     0.535645     0.095216  Biso 1.000000     O
    O   1.0     0.954464     0.643905     0.031917  Biso 1.000000     O
    O   1.0     0.025504     0.337955     0.143931  Biso 1.000000     O
    O   1.0     0.000000     0.213632     0.081708  Biso 1.000000     O
    O   1.0     0.975451     0.035201     0.405223  Biso 1.000000     O
    O   1.0     0.045655     0.144129     0.467852  Biso 1.000000     O
    O   1.0     0.025474     0.163516     0.642510  Biso 1.000000     O
    O   1.0    -0.000091     0.289064     0.581510  Biso 1.000000     O
    O   1.0     0.975709     0.464372     0.904776  Biso 1.000000     O
    O   1.0     0.045540     0.356113     0.968075  Biso 1.000000     O
    O   1.0     0.974499     0.662062     0.856062  Biso 1.000000     O
    O   1.0     0.000000     0.786384     0.918285  Biso 1.000000     O
    O   1.0     0.024554     0.964816     0.594769  Biso 1.000000     O
    O   1.0     0.954350     0.855887     0.532141  Biso 1.000000     O
   Zn   1.0     0.529159     0.097724     0.941561  Biso 1.000000    Zn
   Zn   1.0     0.470759     0.597835     0.557535  Biso 1.000000    Zn
   Zn   1.0     0.470845     0.902294     0.058431  Biso 1.000000    Zn
   Zn   1.0     0.529244     0.402182     0.442458  Biso 1.000000    Zn
   Zn   1.0     0.970768     0.902207     0.442464  Biso 1.000000    Zn
   Zn   1.0     0.029171     0.402234     0.058439  Biso 1.000000    Zn
   Zn   1.0     0.029236     0.097810     0.557529  Biso 1.000000    Zn
   Zn   1.0     0.970832     0.597783     0.941553  Biso 1.000000    Zn
