#======================================================================

# CRYSTAL DATA

#----------------------------------------------------------------------

data_VESTA_phase_1


_pd_phase_name                         MOF
_cell_length_a                         13.54400
_cell_length_b                         14.80100
_cell_length_c                         21.59900
_cell_angle_alpha                      89.49300
_cell_angle_beta                       89.90400
_cell_angle_gamma                      90.08700
_symmetry_space_group_name_H-M         "P 1"
_symmetry_Int_Tables_number            1

loop_
_symmetry_equiv_pos_as_xyz
   "x, y, z"

loop_
   _atom_site_label
   _atom_site_occupancy
   _atom_site_fract_x
   _atom_site_fract_y
   _atom_site_fract_z
   _atom_site_adp_type
   _atom_site_B_iso_or_equiv
   _atom_site_type_symbol
    H   1.0     0.658766     0.477626     0.648705  Biso 1.000000     H
    H   1.0     0.836664     0.522314     0.642851  Biso 1.000000     H
    H   1.0     0.858640     0.361529     0.477099  Biso 1.000000     H
    H   1.0     0.679877     0.329245     0.488318  Biso 1.000000     H
    H   1.0     0.992535     0.518368     0.588375  Biso 1.000000     H
    H   1.0     0.319087     0.469759     0.634341  Biso 1.000000     H
    H   1.0     0.139802     0.493822     0.615556  Biso 1.000000     H
    H   1.0     0.166512     0.322917     0.455614  Biso 1.000000     H
    H   1.0     0.346504     0.307404     0.480807  Biso 1.000000     H
    H   1.0     0.006485     0.372873     0.487564  Biso 1.000000     H
    H   1.0     0.489678     0.118324     0.686742  Biso 1.000000     H
    H   1.0     0.508935     0.288686     0.766584  Biso 1.000000     H
    H   1.0     0.499769     0.081688     0.799216  Biso 1.000000     H
    H   1.0     0.516111     0.250004     0.881646  Biso 1.000000     H
    H   1.0     0.340802     0.980554     0.850460  Biso 1.000000     H
    H   1.0     0.163449     0.025979     0.857097  Biso 1.000000     H
    H   1.0     0.141838     0.861323     0.023059  Biso 1.000000     H
    H   1.0     0.320178     0.828397     0.011055  Biso 1.000000     H
    H   1.0     0.007694     0.020054     0.911590  Biso 1.000000     H
    H   1.0     0.681933     0.971745     0.864519  Biso 1.000000     H
    H   1.0     0.860860     0.996205     0.884110  Biso 1.000000     H
    H   1.0     0.832548     0.821905     0.044388  Biso 1.000000     H
    H   1.0     0.652979     0.806052     0.018298  Biso 1.000000     H
    H   1.0     0.993157     0.872377     0.012596  Biso 1.000000     H
    H   1.0     0.507833     0.623024     0.814802  Biso 1.000000     H
    H   1.0     0.490905     0.790918     0.730356  Biso 1.000000     H
    H   1.0     0.499565     0.582975     0.703299  Biso 1.000000     H
    H   1.0     0.484010     0.748676     0.616416  Biso 1.000000     H
    H   1.0     0.341261     0.522346     0.351281  Biso 1.000000     H
    H   1.0     0.163367     0.477670     0.357139  Biso 1.000000     H
    H   1.0     0.141392     0.638508     0.522867  Biso 1.000000     H
    H   1.0     0.320153     0.670792     0.511641  Biso 1.000000     H
    H   1.0     0.007487     0.481649     0.411610  Biso 1.000000     H
    H   1.0     0.680950     0.530311     0.365632  Biso 1.000000     H
    H   1.0     0.860229     0.506239     0.384417  Biso 1.000000     H
    H   1.0     0.833514     0.677086     0.544387  Biso 1.000000     H
    H   1.0     0.653525     0.692612     0.519193  Biso 1.000000     H
    H   1.0     0.993550     0.627145     0.512422  Biso 1.000000     H
    H   1.0     0.510389     0.881984     0.313195  Biso 1.000000     H
    H   1.0     0.491088     0.711481     0.233510  Biso 1.000000     H
    H   1.0     0.500249     0.918415     0.200667  Biso 1.000000     H
    H   1.0     0.483899     0.749990     0.118344  Biso 1.000000     H
    H   1.0     0.659209     0.019452     0.149511  Biso 1.000000     H
    H   1.0     0.836566     0.974040     0.142886  Biso 1.000000     H
    H   1.0     0.858192     0.138699     0.976927  Biso 1.000000     H
    H   1.0     0.679846     0.171611     0.988919  Biso 1.000000     H
    H   1.0     0.992330     0.979973     0.088403  Biso 1.000000     H
    H   1.0     0.318113     0.028268     0.135460  Biso 1.000000     H
    H   1.0     0.139181     0.003818     0.115880  Biso 1.000000     H
    H   1.0     0.167485     0.178107     0.955596  Biso 1.000000     H
    H   1.0     0.347059     0.193950     0.981675  Biso 1.000000     H
    H   1.0     0.006876     0.127648     0.987397  Biso 1.000000     H
    H   1.0     0.492202     0.376982     0.185152  Biso 1.000000     H
    H   1.0     0.509092     0.209112     0.269623  Biso 1.000000     H
    H   1.0     0.500458     0.417065     0.296644  Biso 1.000000     H
    H   1.0     0.515985     0.251379     0.383545  Biso 1.000000     H
    H   1.0     0.840047     0.519060     0.149554  Biso 1.000000     H
    H   1.0     0.662565     0.473726     0.142875  Biso 1.000000     H
    H   1.0     0.642507     0.638696     0.977055  Biso 1.000000     H
    H   1.0     0.820859     0.671651     0.989147  Biso 1.000000     H
    H   1.0     0.507111     0.479821     0.088388  Biso 1.000000     H
    H   1.0     0.181231     0.528419     0.135474  Biso 1.000000     H
    H   1.0     0.360186     0.503880     0.115934  Biso 1.000000     H
    H   1.0     0.333530     0.678090     0.955603  Biso 1.000000     H
    H   1.0     0.153794     0.693892     0.981575  Biso 1.000000     H
    H   1.0     0.493709     0.627660     0.987480  Biso 1.000000     H
    H   1.0     0.000000     0.877033     0.185132  Biso 1.000000     H
    H   1.0     0.990860     0.709115     0.269647  Biso 1.000000     H
    H   1.0     0.999470     0.917096     0.296639  Biso 1.000000     H
    H   1.0    -0.016040     0.751380     0.383587  Biso 1.000000     H
    H   1.0     0.159486     0.022288     0.351349  Biso 1.000000     H
    H   1.0     0.337192     0.977685     0.357289  Biso 1.000000     H
    H   1.0     0.358601     0.138560     0.522999  Biso 1.000000     H
    H   1.0     0.180040     0.170845     0.511677  Biso 1.000000     H
    H   1.0     0.492851     0.982103     0.411611  Biso 1.000000     H
    H   1.0     0.819551     0.030447     0.365687  Biso 1.000000     H
    H   1.0     0.640065     0.006546     0.384481  Biso 1.000000     H
    H   1.0     0.666717     0.177318     0.544478  Biso 1.000000     H
    H   1.0     0.846910     0.192726     0.519238  Biso 1.000000     H
    H   1.0     0.506638     0.127158     0.512718  Biso 1.000000     H
    H   1.0    -0.010272     0.382148     0.313287  Biso 1.000000     H
    H   1.0     0.008822     0.211653     0.233595  Biso 1.000000     H
    H   1.0    -0.000371     0.418527     0.200661  Biso 1.000000     H
    H   1.0     0.015545     0.250030     0.118382  Biso 1.000000     H
    H   1.0     0.159980     0.480952     0.850435  Biso 1.000000     H
    H   1.0     0.337463     0.526288     0.857111  Biso 1.000000     H
    H   1.0     0.357530     0.361317     0.022930  Biso 1.000000     H
    H   1.0     0.179177     0.328361     0.010842  Biso 1.000000     H
    H   1.0     0.492919     0.520194     0.911595  Biso 1.000000     H
    H   1.0     0.818805     0.471588     0.864511  Biso 1.000000     H
    H   1.0     0.639849     0.496132     0.884048  Biso 1.000000     H
    H   1.0     0.666500     0.321927     0.044383  Biso 1.000000     H
    H   1.0     0.846236     0.306122     0.018413  Biso 1.000000     H
    H   1.0     0.506324     0.372355     0.012502  Biso 1.000000     H
    H   1.0    -0.007611     0.122973     0.814858  Biso 1.000000     H
    H   1.0     0.009140     0.290892     0.730341  Biso 1.000000     H
    H   1.0     0.000547     0.082909     0.703351  Biso 1.000000     H
    H   1.0     0.016025     0.248626     0.616404  Biso 1.000000     H
    H   1.0     0.840579     0.977738     0.648641  Biso 1.000000     H
    H   1.0     0.662882     0.022373     0.642720  Biso 1.000000     H
    H   1.0     0.641392     0.861505     0.477010  Biso 1.000000     H
    H   1.0     0.819947     0.829184     0.488314  Biso 1.000000     H
    H   1.0     0.507194     0.017961     0.588426  Biso 1.000000     H
    H   1.0     0.180441     0.969526     0.634333  Biso 1.000000     H
    H   1.0     0.359931     0.993463     0.615563  Biso 1.000000     H
    H   1.0     0.333342     0.822788     0.455513  Biso 1.000000     H
    H   1.0     0.153147     0.807334     0.480734  Biso 1.000000     H
    H   1.0     0.493394     0.872929     0.487309  Biso 1.000000     H
    H   1.0     0.000000     0.617849     0.686699  Biso 1.000000     H
    H   1.0     0.991191     0.788344     0.766389  Biso 1.000000     H
    H   1.0     0.000000     0.581471     0.799328  Biso 1.000000     H
    H   1.0    -0.015547     0.749974     0.881602  Biso 1.000000     H
    C   1.0     0.706268     0.453674     0.611565  Biso 1.000000     C
    C   1.0     0.805512     0.477481     0.608121  Biso 1.000000     C
    C   1.0     0.863435     0.447957     0.558330  Biso 1.000000     C
    C   1.0     0.818217     0.389454     0.516218  Biso 1.000000     C
    C   1.0     0.718231     0.370293     0.522209  Biso 1.000000     C
    C   1.0     0.962647     0.489018     0.545858  Biso 1.000000     C
    C   1.0     0.282094     0.437947     0.595398  Biso 1.000000     C
    C   1.0     0.181661     0.450666     0.584482  Biso 1.000000     C
    C   1.0     0.138081     0.412256     0.532175  Biso 1.000000     C
    C   1.0     0.198019     0.356495     0.495756  Biso 1.000000     C
    C   1.0     0.297426     0.347557     0.509435  Biso 1.000000     C
    C   1.0     0.037813     0.434415     0.507497  Biso 1.000000     C
    C   1.0     0.495193     0.252839     0.643550  Biso 1.000000     C
    C   1.0     0.495491     0.190089     0.697735  Biso 1.000000     C
    C   1.0     0.503338     0.216304     0.757333  Biso 1.000000     C
    C   1.0     0.504592     0.154047     0.808991  Biso 1.000000     C
    C   1.0     0.511102     0.178883     0.868961  Biso 1.000000     C
    C   1.0     0.510322     0.112876     0.921377  Biso 1.000000     C
    C   1.0     0.293551     0.955937     0.887860  Biso 1.000000     C
    C   1.0     0.194553     0.980165     0.891736  Biso 1.000000     C
    C   1.0     0.136799     0.949514     0.941702  Biso 1.000000     C
    C   1.0     0.182088     0.890016     0.983743  Biso 1.000000     C
    C   1.0     0.281823     0.870447     0.977301  Biso 1.000000     C
    C   1.0     0.037590     0.990067     0.954228  Biso 1.000000     C
    C   1.0     0.718464     0.939274     0.903734  Biso 1.000000     C
    C   1.0     0.818749     0.952258     0.915136  Biso 1.000000     C
    C   1.0     0.861872     0.912834     0.967678  Biso 1.000000     C
    C   1.0     0.801518     0.856201     0.004001  Biso 1.000000     C
    C   1.0     0.702334     0.846990     0.989782  Biso 1.000000     C
    C   1.0     0.962131     0.934472     0.992601  Biso 1.000000     C
    C   1.0     0.502659     0.758760     0.854426  Biso 1.000000     C
    C   1.0     0.502739     0.694455     0.801907  Biso 1.000000     C
    C   1.0     0.495903     0.718844     0.741585  Biso 1.000000     C
    C   1.0     0.494921     0.654991     0.691591  Biso 1.000000     C
    C   1.0     0.488849     0.677971     0.630966  Biso 1.000000     C
    C   1.0     0.489714     0.610612     0.580181  Biso 1.000000     C
    C   1.0     0.293761     0.546321     0.388414  Biso 1.000000     C
    C   1.0     0.194518     0.522516     0.391862  Biso 1.000000     C
    C   1.0     0.136593     0.552058     0.441647  Biso 1.000000     C
    C   1.0     0.181814     0.610574     0.483750  Biso 1.000000     C
    C   1.0     0.281800     0.629736     0.477755  Biso 1.000000     C
    C   1.0     0.037380     0.511002     0.454124  Biso 1.000000     C
    C   1.0     0.717939     0.562110     0.404581  Biso 1.000000     C
    C   1.0     0.818371     0.549384     0.415497  Biso 1.000000     C
    C   1.0     0.861948     0.587775     0.467812  Biso 1.000000     C
    C   1.0     0.802009     0.643522     0.504239  Biso 1.000000     C
    C   1.0     0.702602     0.652468     0.490559  Biso 1.000000     C
    C   1.0     0.962217     0.565607     0.492487  Biso 1.000000     C
    C   1.0     0.504885     0.747461     0.356476  Biso 1.000000     C
    C   1.0     0.504566     0.810195     0.302264  Biso 1.000000     C
    C   1.0     0.496692     0.783884     0.242684  Biso 1.000000     C
    C   1.0     0.495421     0.846034     0.190966  Biso 1.000000     C
    C   1.0     0.488916     0.821120     0.131009  Biso 1.000000     C
    C   1.0     0.489692     0.887107     0.078578  Biso 1.000000     C
    C   1.0     0.706465     0.044072     0.112115  Biso 1.000000     C
    C   1.0     0.805465     0.019852     0.108246  Biso 1.000000     C
    C   1.0     0.863226     0.050508     0.058283  Biso 1.000000     C
    C   1.0     0.817938     0.110003     0.016239  Biso 1.000000     C
    C   1.0     0.718199     0.129565     0.022675  Biso 1.000000     C
    C   1.0     0.962438     0.009958     0.045763  Biso 1.000000     C
    C   1.0     0.281579     0.060738     0.096247  Biso 1.000000     C
    C   1.0     0.181292     0.047761     0.084851  Biso 1.000000     C
    C   1.0     0.138164     0.087184     0.032310  Biso 1.000000     C
    C   1.0     0.198517     0.143812     0.995982  Biso 1.000000     C
    C   1.0     0.297704     0.153017     0.010195  Biso 1.000000     C
    C   1.0     0.037901     0.065552     0.007390  Biso 1.000000     C
    C   1.0     0.497370     0.241237     0.145547  Biso 1.000000     C
    C   1.0     0.497291     0.305555     0.198057  Biso 1.000000     C
    C   1.0     0.504105     0.281183     0.258383  Biso 1.000000     C
    C   1.0     0.505089     0.345052     0.308366  Biso 1.000000     C
    C   1.0     0.511158     0.322084     0.368993  Biso 1.000000     C
    C   1.0     0.510308     0.389436     0.419782  Biso 1.000000     C
    C   1.0     0.793091     0.543793     0.112182  Biso 1.000000     C
    C   1.0     0.694017     0.519617     0.108284  Biso 1.000000     C
    C   1.0     0.636652     0.550365     0.058336  Biso 1.000000     C
    C   1.0     0.682391     0.609949     0.016363  Biso 1.000000     C
    C   1.0     0.782152     0.629507     0.022842  Biso 1.000000     C
    C   1.0     0.537357     0.509868     0.045773  Biso 1.000000     C
    C   1.0     0.218113     0.560831     0.096249  Biso 1.000000     C
    C   1.0     0.318417     0.547805     0.084877  Biso 1.000000     C
    C   1.0     0.361992     0.587206     0.032340  Biso 1.000000     C
    C   1.0     0.302089     0.643808     0.995971  Biso 1.000000     C
    C   1.0     0.202814     0.653009     0.010141  Biso 1.000000     C
    C   1.0     0.462315     0.565550     0.007434  Biso 1.000000     C
    C   1.0     0.000000     0.741264     0.145543  Biso 1.000000     C
    C   1.0     0.000000     0.805590     0.198050  Biso 1.000000     C
    C   1.0     0.995818     0.781200     0.258393  Biso 1.000000     C
    C   1.0     0.994846     0.845072     0.308375  Biso 1.000000     C
    C   1.0     0.988808     0.822095     0.369017  Biso 1.000000     C
    C   1.0     0.989704     0.889455     0.419799  Biso 1.000000     C
    C   1.0     0.206800     0.046306     0.388503  Biso 1.000000     C
    C   1.0     0.305950     0.022516     0.391998  Biso 1.000000     C
    C   1.0     0.363674     0.052098     0.441791  Biso 1.000000     C
    C   1.0     0.318343     0.110586     0.483877  Biso 1.000000     C
    C   1.0     0.218454     0.129753     0.477820  Biso 1.000000     C
    C   1.0     0.462784     0.011181     0.454202  Biso 1.000000     C
    C   1.0     0.782487     0.062277     0.404635  Biso 1.000000     C
    C   1.0     0.681953     0.049651     0.415558  Biso 1.000000     C
    C   1.0     0.638296     0.088037     0.467897  Biso 1.000000     C
    C   1.0     0.698272     0.143753     0.504315  Biso 1.000000     C
    C   1.0     0.797782     0.152627     0.490622  Biso 1.000000     C
    C   1.0     0.537902     0.065737     0.492630  Biso 1.000000     C
    C   1.0    -0.004617     0.247620     0.356558  Biso 1.000000     C
    C   1.0    -0.004443     0.310373     0.302349  Biso 1.000000     C
    C   1.0     0.003241     0.284049     0.242750  Biso 1.000000     C
    C   1.0     0.004350     0.346141     0.190993  Biso 1.000000     C
    C   1.0     0.010659     0.321164     0.131031  Biso 1.000000     C
    C   1.0     0.009889     0.387112     0.078578  Biso 1.000000     C
    C   1.0     0.206939     0.456219     0.887806  Biso 1.000000     C
    C   1.0     0.306012     0.480396     0.891702  Biso 1.000000     C
    C   1.0     0.363380     0.449649     0.941649  Biso 1.000000     C
    C   1.0     0.317644     0.390064     0.983623  Biso 1.000000     C
    C   1.0     0.217883     0.370505     0.977145  Biso 1.000000     C
    C   1.0     0.462674     0.490147     0.954210  Biso 1.000000     C
    C   1.0     0.781922     0.439179     0.903736  Biso 1.000000     C
    C   1.0     0.681617     0.452207     0.915106  Biso 1.000000     C
    C   1.0     0.638041     0.412808     0.967644  Biso 1.000000     C
    C   1.0     0.697943     0.356207     0.004015  Biso 1.000000     C
    C   1.0     0.797217     0.347005     0.989846  Biso 1.000000     C
    C   1.0     0.537717     0.434465     0.992549  Biso 1.000000     C
    C   1.0    -0.002558     0.258743     0.854447  Biso 1.000000     C
    C   1.0    -0.002576     0.194417     0.801940  Biso 1.000000     C
    C   1.0     0.004191     0.218806     0.741597  Biso 1.000000     C
    C   1.0     0.005167     0.154934     0.691616  Biso 1.000000     C
    C   1.0     0.011203     0.177911     0.630973  Biso 1.000000     C
    C   1.0     0.010317     0.110551     0.580192  Biso 1.000000     C
    C   1.0     0.793249     0.953728     0.611492  Biso 1.000000     C
    C   1.0     0.694104     0.977537     0.608007  Biso 1.000000     C
    C   1.0     0.636358     0.947965     0.558223  Biso 1.000000     C
    C   1.0     0.681665     0.889471     0.516130  Biso 1.000000     C
    C   1.0     0.781553     0.870285     0.522176  Biso 1.000000     C
    C   1.0     0.537247     0.988894     0.545828  Biso 1.000000     C
    C   1.0     0.217520     0.937727     0.595379  Biso 1.000000     C
    C   1.0     0.318055     0.950376     0.584468  Biso 1.000000     C
    C   1.0     0.361729     0.912027     0.532122  Biso 1.000000     C
    C   1.0     0.301771     0.856323     0.495683  Biso 1.000000     C
    C   1.0     0.202260     0.847425     0.509365  Biso 1.000000     C
    C   1.0     0.462125     0.934343     0.507401  Biso 1.000000     C
    C   1.0     0.000000     0.752378     0.643429  Biso 1.000000     C
    C   1.0     0.000000     0.689623     0.697637  Biso 1.000000     C
    C   1.0     0.996778     0.715947     0.757235  Biso 1.000000     C
    C   1.0     0.995672     0.653858     0.808994  Biso 1.000000     C
    C   1.0     0.989359     0.678839     0.868956  Biso 1.000000     C
    C   1.0     0.990141     0.612895     0.921410  Biso 1.000000     C
    N   1.0     0.661580     0.403261     0.568045  Biso 1.000000     N
    N   1.0     0.340490     0.389720     0.557520  Biso 1.000000     N
    N   1.0     0.338233     0.904033     0.931098  Biso 1.000000     N
    N   1.0     0.659735     0.889775     0.941319  Biso 1.000000     N
    N   1.0     0.338452     0.596754     0.431923  Biso 1.000000     N
    N   1.0     0.659540     0.610325     0.442465  Biso 1.000000     N
    N   1.0     0.661785     0.095974     0.068874  Biso 1.000000     N
    N   1.0     0.340307     0.110232     0.058658  Biso 1.000000     N
    N   1.0     0.838194     0.595805     0.069009  Biso 1.000000     N
    N   1.0     0.159779     0.610280     0.058615  Biso 1.000000     N
    N   1.0     0.161971     0.096784     0.431961  Biso 1.000000     N
    N   1.0     0.840884     0.110417     0.442533  Biso 1.000000     N
    N   1.0     0.161838     0.404206     0.930979  Biso 1.000000     N
    N   1.0     0.840255     0.389731     0.941371  Biso 1.000000     N
    N   1.0     0.838056     0.903241     0.568029  Biso 1.000000     N
    N   1.0     0.159142     0.889600     0.557463  Biso 1.000000     N
    O   1.0     0.499188     0.338462     0.653541  Biso 1.000000     O
    O   1.0     0.491809     0.219105     0.589863  Biso 1.000000     O
    O   1.0     0.511916     0.148367     0.975213  Biso 1.000000     O
    O   1.0     0.508056     0.029333     0.908780  Biso 1.000000     O
    O   1.0     0.500577     0.844140     0.842815  Biso 1.000000     O
    O   1.0     0.504041     0.726464     0.909107  Biso 1.000000     O
    O   1.0     0.488003     0.644724     0.525554  Biso 1.000000     O
    O   1.0     0.492117     0.527344     0.594805  Biso 1.000000     O
    O   1.0     0.500859     0.661843     0.346471  Biso 1.000000     O
    O   1.0     0.508311     0.781149     0.410168  Biso 1.000000     O
    O   1.0     0.488112     0.851609     0.024744  Biso 1.000000     O
    O   1.0     0.491982     0.970653     0.091164  Biso 1.000000     O
    O   1.0     0.499452     0.155861     0.157167  Biso 1.000000     O
    O   1.0     0.495996     0.273526     0.090864  Biso 1.000000     O
    O   1.0     0.512015     0.355311     0.474405  Biso 1.000000     O
    O   1.0     0.507920     0.472709     0.405165  Biso 1.000000     O
    O   1.0     0.000473     0.655884     0.157172  Biso 1.000000     O
    O   1.0     0.000000     0.773544     0.090854  Biso 1.000000     O
    O   1.0     0.987992     0.855331     0.474425  Biso 1.000000     O
    O   1.0     0.992121     0.972736     0.405169  Biso 1.000000     O
    O   1.0     0.999672     0.162029     0.346516  Biso 1.000000     O
    O   1.0    -0.008231     0.281243     0.410264  Biso 1.000000     O
    O   1.0     0.011421     0.351588     0.024750  Biso 1.000000     O
    O   1.0     0.007770     0.470660     0.091150  Biso 1.000000     O
    O   1.0     0.999560     0.344122     0.842817  Biso 1.000000     O
    O   1.0    -0.003998     0.226463     0.909136  Biso 1.000000     O
    O   1.0     0.012037     0.144674     0.525565  Biso 1.000000     O
    O   1.0     0.007916     0.027270     0.594821  Biso 1.000000     O
    O   1.0     0.000358     0.837970     0.653472  Biso 1.000000     O
    O   1.0     0.000000     0.718759     0.589723  Biso 1.000000     O
    O   1.0     0.988608     0.648419     0.975238  Biso 1.000000     O
    O   1.0     0.992265     0.529346     0.908840  Biso 1.000000     O
   Zn   1.0     0.500170     0.394514     0.565484  Biso 1.000000    Zn
   Zn   1.0     0.499726     0.893971     0.933488  Biso 1.000000    Zn
   Zn   1.0     0.499869     0.605535     0.434476  Biso 1.000000    Zn
   Zn   1.0     0.500310     0.106033     0.066489  Biso 1.000000    Zn
   Zn   1.0     0.999732     0.606044     0.066496  Biso 1.000000    Zn
   Zn   1.0     0.000349     0.105539     0.434469  Biso 1.000000    Zn
   Zn   1.0     0.000306     0.393964     0.933493  Biso 1.000000    Zn
   Zn   1.0     0.999683     0.894464     0.565520  Biso 1.000000    Zn
