#======================================================================

# CRYSTAL DATA

#----------------------------------------------------------------------

data_VESTA_phase_1


_pd_phase_name                         MOF
_cell_length_a                         12.19400
_cell_length_b                         12.18200
_cell_length_c                         23.16900
_cell_angle_alpha                      90.00000
_cell_angle_beta                       90.00000
_cell_angle_gamma                      90.00100
_symmetry_space_group_name_H-M         "P 1"
_symmetry_Int_Tables_number            1

loop_
_symmetry_equiv_pos_as_xyz
   "x, y, z"

loop_
   _atom_site_label
   _atom_site_occupancy
   _atom_site_fract_x
   _atom_site_fract_y
   _atom_site_fract_z
   _atom_site_adp_type
   _atom_site_B_iso_or_equiv
   _atom_site_type_symbol
    H   1.0     0.607525     0.676801     0.798788  Biso 1.000000     H
    H   1.0     0.753272     0.676188     0.873177  Biso 1.000000     H
    H   1.0     0.392420     0.323201     0.798787  Biso 1.000000     H
    H   1.0     0.246674     0.323814     0.873176  Biso 1.000000     H
    H   1.0     0.323357     0.607550     0.298656  Biso 1.000000     H
    H   1.0     0.323980     0.753283     0.373141  Biso 1.000000     H
    H   1.0     0.676608     0.392447     0.298656  Biso 1.000000     H
    H   1.0     0.675982     0.246715     0.373141  Biso 1.000000     H
    H   1.0     0.392435     0.676798     0.201214  Biso 1.000000     H
    H   1.0     0.246689     0.676184     0.126825  Biso 1.000000     H
    H   1.0     0.607534     0.323204     0.201214  Biso 1.000000     H
    H   1.0     0.753280     0.323822     0.126824  Biso 1.000000     H
    H   1.0     0.676601     0.607558     0.701347  Biso 1.000000     H
    H   1.0     0.675979     0.753291     0.626862  Biso 1.000000     H
    H   1.0     0.323347     0.392444     0.701345  Biso 1.000000     H
    H   1.0     0.323972     0.246712     0.626861  Biso 1.000000     H
    H   1.0     0.392430     0.323202     0.201213  Biso 1.000000     H
    H   1.0     0.246684     0.323817     0.126824  Biso 1.000000     H
    H   1.0     0.607534     0.676801     0.201214  Biso 1.000000     H
    H   1.0     0.753280     0.676189     0.126825  Biso 1.000000     H
    H   1.0     0.676600     0.392449     0.701347  Biso 1.000000     H
    H   1.0     0.675977     0.246716     0.626863  Biso 1.000000     H
    H   1.0     0.323348     0.607554     0.701346  Biso 1.000000     H
    H   1.0     0.323973     0.753286     0.626861  Biso 1.000000     H
    H   1.0     0.607521     0.323205     0.798789  Biso 1.000000     H
    H   1.0     0.753268     0.323821     0.873178  Biso 1.000000     H
    H   1.0     0.392424     0.676798     0.798788  Biso 1.000000     H
    H   1.0     0.246678     0.676181     0.873178  Biso 1.000000     H
    H   1.0     0.323355     0.392444     0.298655  Biso 1.000000     H
    H   1.0     0.323976     0.246712     0.373139  Biso 1.000000     H
    H   1.0     0.676610     0.607559     0.298656  Biso 1.000000     H
    H   1.0     0.675986     0.753292     0.373140  Biso 1.000000     H
    C   1.0     0.639683     0.598818     0.814338  Biso 1.000000     C
    C   1.0     0.721404     0.599156     0.856253  Biso 1.000000     C
    C   1.0     0.360262     0.401185     0.814337  Biso 1.000000     C
    C   1.0     0.278542     0.400846     0.856252  Biso 1.000000     C
    C   1.0     0.401261     0.639734     0.314213  Biso 1.000000     C
    C   1.0     0.400925     0.721425     0.356183  Biso 1.000000     C
    C   1.0     0.598704     0.360265     0.314212  Biso 1.000000     C
    C   1.0     0.599038     0.278574     0.356183  Biso 1.000000     C
    C   1.0     0.360276     0.598814     0.185665  Biso 1.000000     C
    C   1.0     0.278555     0.599152     0.143749  Biso 1.000000     C
    C   1.0     0.639692     0.401189     0.185664  Biso 1.000000     C
    C   1.0     0.721413     0.400853     0.143749  Biso 1.000000     C
    C   1.0     0.598697     0.639738     0.685790  Biso 1.000000     C
    C   1.0     0.599034     0.721430     0.643819  Biso 1.000000     C
    C   1.0     0.401251     0.360264     0.685789  Biso 1.000000     C
    C   1.0     0.400916     0.278572     0.643818  Biso 1.000000     C
    C   1.0     0.360273     0.401186     0.185664  Biso 1.000000     C
    C   1.0     0.278552     0.400848     0.143749  Biso 1.000000     C
    C   1.0     0.639692     0.598818     0.185665  Biso 1.000000     C
    C   1.0     0.721413     0.599157     0.143749  Biso 1.000000     C
    C   1.0     0.598696     0.360267     0.685790  Biso 1.000000     C
    C   1.0     0.599033     0.278575     0.643820  Biso 1.000000     C
    C   1.0     0.401252     0.639736     0.685790  Biso 1.000000     C
    C   1.0     0.400917     0.721427     0.643819  Biso 1.000000     C
    C   1.0     0.639681     0.401189     0.814338  Biso 1.000000     C
    C   1.0     0.721401     0.400852     0.856253  Biso 1.000000     C
    C   1.0     0.360265     0.598814     0.814337  Biso 1.000000     C
    C   1.0     0.278544     0.599150     0.856253  Biso 1.000000     C
    C   1.0     0.401258     0.360263     0.314212  Biso 1.000000     C
    C   1.0     0.400921     0.278572     0.356182  Biso 1.000000     C
    C   1.0     0.598706     0.639738     0.314212  Biso 1.000000     C
    C   1.0     0.599042     0.721430     0.356183  Biso 1.000000     C
    C   1.0     0.598313     0.500003     0.792073  Biso 1.000000     C
    C   1.0     0.850952     0.500004     0.922423  Biso 1.000000     C
    C   1.0     0.763434     0.500004     0.877492  Biso 1.000000     C
    C   1.0     0.401633     0.500000     0.792072  Biso 1.000000     C
    C   1.0     0.148995     0.499997     0.922423  Biso 1.000000     C
    C   1.0     0.236513     0.499998     0.877491  Biso 1.000000     C
    C   1.0     0.499984     0.598398     0.291920  Biso 1.000000     C
    C   1.0     0.499982     0.850935     0.422416  Biso 1.000000     C
    C   1.0     0.499983     0.763439     0.377442  Biso 1.000000     C
    C   1.0     0.499982     0.401602     0.291919  Biso 1.000000     C
    C   1.0     0.499978     0.149066     0.422416  Biso 1.000000     C
    C   1.0     0.499979     0.236562     0.377442  Biso 1.000000     C
    C   1.0     0.401643     0.500000     0.207929  Biso 1.000000     C
    C   1.0     0.149005     0.500001     0.077579  Biso 1.000000     C
    C   1.0     0.236523     0.500000     0.122510  Biso 1.000000     C
    C   1.0     0.598323     0.500002     0.207929  Biso 1.000000     C
    C   1.0     0.850961     0.500007     0.077579  Biso 1.000000     C
    C   1.0     0.763443     0.500006     0.122510  Biso 1.000000     C
    C   1.0     0.499974     0.598399     0.708082  Biso 1.000000     C
    C   1.0     0.499976     0.850935     0.577586  Biso 1.000000     C
    C   1.0     0.499976     0.763439     0.622560  Biso 1.000000     C
    C   1.0     0.499973     0.401603     0.708082  Biso 1.000000     C
    C   1.0     0.499976     0.149066     0.577586  Biso 1.000000     C
    C   1.0     0.499975     0.236563     0.622560  Biso 1.000000     C
    C   1.0     0.499973     0.500001     0.750089  Biso 1.000000     C
    C   1.0     0.499983     0.500000     0.249913  Biso 1.000000     C
    O   1.0     0.885138     0.593580     0.939981  Biso 1.000000     O
    O   1.0     0.114810     0.406421     0.939980  Biso 1.000000     O
    O   1.0     0.406494     0.885110     0.439984  Biso 1.000000     O
    O   1.0     0.593466     0.114890     0.439985  Biso 1.000000     O
    O   1.0     0.114822     0.593577     0.060022  Biso 1.000000     O
    O   1.0     0.885143     0.406431     0.060021  Biso 1.000000     O
    O   1.0     0.593464     0.885115     0.560017  Biso 1.000000     O
    O   1.0     0.406489     0.114886     0.560017  Biso 1.000000     O
    O   1.0     0.114818     0.406425     0.060021  Biso 1.000000     O
    O   1.0     0.885146     0.593583     0.060022  Biso 1.000000     O
    O   1.0     0.593464     0.114890     0.560018  Biso 1.000000     O
    O   1.0     0.406489     0.885112     0.560017  Biso 1.000000     O
    O   1.0     0.885133     0.406428     0.939981  Biso 1.000000     O
    O   1.0     0.114813     0.593573     0.939981  Biso 1.000000     O
    O   1.0     0.406491     0.114886     0.439984  Biso 1.000000     O
    O   1.0     0.593469     0.885116     0.439985  Biso 1.000000     O
   Cu   1.0     0.000000     0.600426     0.000000  Biso 1.000000    Cu
   Cu   1.0    -0.000004     0.399585    -0.000000  Biso 1.000000    Cu
   Cu   1.0     0.399645    -0.000005     0.500001  Biso 1.000000    Cu
   Cu   1.0     0.600315    -0.000000     0.500001  Biso 1.000000    Cu
