#======================================================================

# CRYSTAL DATA

#----------------------------------------------------------------------

data_VESTA_phase_1


_pd_phase_name                         MOF
_cell_length_a                         20.66400
_cell_length_b                         20.66400
_cell_length_c                         18.98100
_cell_angle_alpha                      81.09000
_cell_angle_beta                       81.09000
_cell_angle_gamma                      82.41000
_symmetry_space_group_name_H-M         "P 1"
_symmetry_Int_Tables_number            1

loop_
_symmetry_equiv_pos_as_xyz
   "x, y, z"

loop_
   _atom_site_label
   _atom_site_occupancy
   _atom_site_fract_x
   _atom_site_fract_y
   _atom_site_fract_z
   _atom_site_adp_type
   _atom_site_B_iso_or_equiv
   _atom_site_type_symbol
    H   1.0     0.323175     0.406268     0.239852  Biso 1.000000     H
    H   1.0     0.367082     0.899367     0.239897  Biso 1.000000     H
    H   1.0     0.823159     0.406271     0.239858  Biso 1.000000     H
    H   1.0     0.867087     0.899400     0.239845  Biso 1.000000     H
    H   1.0     0.291940     0.414764     0.467738  Biso 1.000000     H
    H   1.0     0.335859     0.907798     0.467796  Biso 1.000000     H
    H   1.0     0.791924     0.414743     0.467748  Biso 1.000000     H
    H   1.0     0.835852     0.907901     0.467730  Biso 1.000000     H
    H   1.0     0.176767     0.057172     0.132661  Biso 1.000000     H
    H   1.0     0.220718     0.550278     0.132519  Biso 1.000000     H
    H   1.0     0.676633     0.057237     0.132654  Biso 1.000000     H
    H   1.0     0.720683     0.550279     0.132523  Biso 1.000000     H
    H   1.0     0.256174     0.007997     0.127066  Biso 1.000000     H
    H   1.0     0.300119     0.501091     0.126903  Biso 1.000000     H
    H   1.0     0.756078     0.008134     0.126949  Biso 1.000000     H
    H   1.0     0.800092     0.501105     0.126907  Biso 1.000000     H
    H   1.0     0.194016    -0.009604     0.203074  Biso 1.000000     H
    H   1.0     0.237990     0.483529     0.202952  Biso 1.000000     H
    H   1.0     0.693996    -0.009556     0.203010  Biso 1.000000     H
    H   1.0     0.737962     0.483526     0.202950  Biso 1.000000     H
    H   1.0     0.478370     0.453812     0.342506  Biso 1.000000     H
    H   1.0     0.522292     0.946840     0.342573  Biso 1.000000     H
    H   1.0     0.978356     0.453792     0.342524  Biso 1.000000     H
    H   1.0     0.000000     0.946953     0.342495  Biso 1.000000     H
    H   1.0     0.261115     0.360498     0.181434  Biso 1.000000     H
    H   1.0     0.305033     0.853613     0.181490  Biso 1.000000     H
    H   1.0     0.761104     0.360502     0.181424  Biso 1.000000     H
    H   1.0     0.805054     0.853685     0.181360  Biso 1.000000     H
    H   1.0     0.319036     0.380120     0.101428  Biso 1.000000     H
    H   1.0     0.362995     0.873287     0.101534  Biso 1.000000     H
    H   1.0     0.819033     0.380137     0.101429  Biso 1.000000     H
    H   1.0     0.862968     0.873431     0.101385  Biso 1.000000     H
    H   1.0     0.252263     0.333110     0.097894  Biso 1.000000     H
    H   1.0     0.296255     0.826267     0.097904  Biso 1.000000     H
    H   1.0     0.752275     0.333115     0.097875  Biso 1.000000     H
    H   1.0     0.796260     0.826366     0.097765  Biso 1.000000     H
    H   1.0     0.075204     0.180713     0.290712  Biso 1.000000     H
    H   1.0     0.119115     0.673822     0.290750  Biso 1.000000     H
    H   1.0     0.575105     0.180706     0.290779  Biso 1.000000     H
    H   1.0     0.619136     0.673813     0.290721  Biso 1.000000     H
    H   1.0     0.065495     0.215508     0.063046  Biso 1.000000     H
    H   1.0     0.109408     0.708620     0.063083  Biso 1.000000     H
    H   1.0     0.565425     0.215500     0.063106  Biso 1.000000     H
    H   1.0     0.609384     0.708626     0.063064  Biso 1.000000     H
    H   1.0     0.440167     0.293218     0.397969  Biso 1.000000     H
    H   1.0     0.484134     0.786258     0.397942  Biso 1.000000     H
    H   1.0     0.940166     0.293226     0.397867  Biso 1.000000     H
    H   1.0     0.984078     0.786386     0.397869  Biso 1.000000     H
    H   1.0     0.482706     0.210605     0.403877  Biso 1.000000     H
    H   1.0     0.526693     0.703653     0.403833  Biso 1.000000     H
    H   1.0     0.982685     0.210604     0.403797  Biso 1.000000     H
    H   1.0     0.000000     0.703759     0.403859  Biso 1.000000     H
    H   1.0     0.504991     0.270964     0.327582  Biso 1.000000     H
    H   1.0     0.548969     0.764031     0.327553  Biso 1.000000     H
    H   1.0     0.000000     0.270957     0.327515  Biso 1.000000     H
    H   1.0     0.000000     0.764074     0.327551  Biso 1.000000     H
    H   1.0     0.013135     0.033022     0.188014  Biso 1.000000     H
    H   1.0     0.057055     0.526130     0.188046  Biso 1.000000     H
    H   1.0     0.513057     0.033013     0.188069  Biso 1.000000     H
    H   1.0     0.557059     0.526125     0.188026  Biso 1.000000     H
    H   1.0     0.127292     0.237496     0.348788  Biso 1.000000     H
    H   1.0     0.171205     0.730625     0.348863  Biso 1.000000     H
    H   1.0     0.627262     0.237506     0.348783  Biso 1.000000     H
    H   1.0     0.671245     0.730608     0.348758  Biso 1.000000     H
    H   1.0     0.103541     0.181134     0.428838  Biso 1.000000     H
    H   1.0     0.147436     0.674291     0.428931  Biso 1.000000     H
    H   1.0     0.603566     0.181162     0.428869  Biso 1.000000     H
    H   1.0     0.647545     0.674235     0.428817  Biso 1.000000     H
    H   1.0     0.156755     0.242814     0.432254  Biso 1.000000     H
    H   1.0     0.200649     0.735978     0.432329  Biso 1.000000     H
    H   1.0     0.656779     0.242864     0.432208  Biso 1.000000     H
    H   1.0     0.700743     0.735938     0.432202  Biso 1.000000     H
    H   1.0     0.163657     0.020686     0.821407  Biso 1.000000     H
    H   1.0     0.207565     0.513780     0.821446  Biso 1.000000     H
    H   1.0     0.663631     0.020655     0.821456  Biso 1.000000     H
    H   1.0     0.707558     0.513777     0.821440  Biso 1.000000     H
    H   1.0     0.194884     0.012256     0.593508  Biso 1.000000     H
    H   1.0     0.238812     0.505253     0.593566  Biso 1.000000     H
    H   1.0     0.694871     0.012139     0.593574  Biso 1.000000     H
    H   1.0     0.738805     0.505273     0.593556  Biso 1.000000     H
    H   1.0     0.310031     0.369771     0.928774  Biso 1.000000     H
    H   1.0     0.353984     0.862877     0.928653  Biso 1.000000     H
    H   1.0     0.810037     0.369771     0.928777  Biso 1.000000     H
    H   1.0     0.854085     0.862815     0.928643  Biso 1.000000     H
    H   1.0     0.230628     0.418954     0.934391  Biso 1.000000     H
    H   1.0     0.274574     0.912047     0.934254  Biso 1.000000     H
    H   1.0     0.730627     0.418942     0.934395  Biso 1.000000     H
    H   1.0     0.774639     0.911916     0.934349  Biso 1.000000     H
    H   1.0     0.292755     0.436519     0.858341  Biso 1.000000     H
    H   1.0     0.336726     0.929650     0.858240  Biso 1.000000     H
    H   1.0     0.792754     0.436520     0.858348  Biso 1.000000     H
    H   1.0     0.836720     0.929608     0.858287  Biso 1.000000     H
    H   1.0     0.008449    -0.026784     0.718727  Biso 1.000000     H
    H   1.0     0.052380     0.466212     0.718797  Biso 1.000000     H
    H   1.0     0.508443    -0.026912     0.718809  Biso 1.000000     H
    H   1.0     0.552370     0.466230     0.718780  Biso 1.000000     H
    H   1.0     0.225705     0.066433     0.879821  Biso 1.000000     H
    H   1.0     0.269627     0.559551     0.879857  Biso 1.000000     H
    H   1.0     0.725659     0.066367     0.879941  Biso 1.000000     H
    H   1.0     0.769609     0.559547     0.879868  Biso 1.000000     H
    H   1.0     0.167748     0.046757     0.959780  Biso 1.000000     H
    H   1.0     0.211705     0.539925     0.959862  Biso 1.000000     H
    H   1.0     0.667745     0.046614     0.959914  Biso 1.000000     H
    H   1.0     0.711683     0.539909     0.959864  Biso 1.000000     H
    H   1.0     0.234486     0.093783     0.963404  Biso 1.000000     H
    H   1.0     0.278473     0.586940     0.963399  Biso 1.000000     H
    H   1.0     0.734448     0.093684     0.963538  Biso 1.000000     H
    H   1.0     0.778437     0.586937     0.963415  Biso 1.000000     H
    H   1.0     0.411622     0.246232     0.770558  Biso 1.000000     H
    H   1.0     0.455548     0.739341     0.770587  Biso 1.000000     H
    H   1.0     0.911585     0.246238     0.770582  Biso 1.000000     H
    H   1.0     0.955612     0.739348     0.770525  Biso 1.000000     H
    H   1.0     0.421334     0.211435     0.998224  Biso 1.000000     H
    H   1.0     0.465248     0.704547     0.998254  Biso 1.000000     H
    H   1.0     0.921333     0.211430     0.998240  Biso 1.000000     H
    H   1.0     0.965286     0.704557     0.998199  Biso 1.000000     H
    H   1.0     0.046614     0.133777     0.663372  Biso 1.000000     H
    H   1.0     0.090622     0.626734     0.663462  Biso 1.000000     H
    H   1.0     0.546678     0.133600     0.663548  Biso 1.000000     H
    H   1.0     0.590607     0.626724     0.663550  Biso 1.000000     H
    H   1.0     0.004067     0.216386     0.657470  Biso 1.000000     H
    H   1.0     0.048148     0.709374     0.657501  Biso 1.000000     H
    H   1.0     0.504218     0.216246     0.657524  Biso 1.000000     H
    H   1.0     0.548152     0.709372     0.657562  Biso 1.000000     H
    H   1.0    -0.018223     0.156018     0.733752  Biso 1.000000     H
    H   1.0     0.025763     0.649046     0.733790  Biso 1.000000     H
    H   1.0     0.481777     0.155948     0.733820  Biso 1.000000     H
    H   1.0     0.525718     0.649055     0.733843  Biso 1.000000     H
    H   1.0     0.473688     0.393924     0.873256  Biso 1.000000     H
    H   1.0     0.517610     0.887033     0.873287  Biso 1.000000     H
    H   1.0     0.973659     0.393930     0.873275  Biso 1.000000     H
    H   1.0     0.000000     0.887042     0.873234  Biso 1.000000     H
    H   1.0     0.359568     0.189446     0.712415  Biso 1.000000     H
    H   1.0     0.403503     0.682579     0.712459  Biso 1.000000     H
    H   1.0     0.859484     0.189448     0.712533  Biso 1.000000     H
    H   1.0     0.903505     0.682569     0.712470  Biso 1.000000     H
    H   1.0     0.383424     0.245785     0.632384  Biso 1.000000     H
    H   1.0     0.427360     0.738937     0.632444  Biso 1.000000     H
    H   1.0     0.883199     0.245819     0.632477  Biso 1.000000     H
    H   1.0     0.927315     0.738913     0.632425  Biso 1.000000     H
    H   1.0     0.330181     0.184148     0.628901  Biso 1.000000     H
    H   1.0     0.374104     0.677318     0.628942  Biso 1.000000     H
    H   1.0     0.829995     0.184123     0.629083  Biso 1.000000     H
    H   1.0     0.874064     0.677274     0.628986  Biso 1.000000     H
    C   1.0     0.449126     0.432129     0.212919  Biso 1.000000     C
    C   1.0     0.493041     0.925209     0.212978  Biso 1.000000     C
    C   1.0     0.949115     0.432121     0.212934  Biso 1.000000     C
    C   1.0     0.993041     0.925254     0.212911  Biso 1.000000     C
    C   1.0     0.340886     0.414800     0.288157  Biso 1.000000     C
    C   1.0     0.384808     0.907852     0.288210  Biso 1.000000     C
    C   1.0     0.840871     0.414795     0.288165  Biso 1.000000     C
    C   1.0     0.884798     0.907933     0.288149  Biso 1.000000     C
    C   1.0     0.228029     0.400430     0.355510  Biso 1.000000     C
    C   1.0     0.271941     0.893518     0.355541  Biso 1.000000     C
    C   1.0     0.728015     0.400422     0.355512  Biso 1.000000     C
    C   1.0     0.771945     0.893554     0.355505  Biso 1.000000     C
    C   1.0     0.388839     0.433094     0.412493  Biso 1.000000     C
    C   1.0     0.432755     0.926135     0.412553  Biso 1.000000     C
    C   1.0     0.888825     0.433075     0.412506  Biso 1.000000     C
    C   1.0     0.932751     0.926234     0.412484  Biso 1.000000     C
    C   1.0     0.299147     0.410733     0.353758  Biso 1.000000     C
    C   1.0     0.343062     0.903800     0.353805  Biso 1.000000     C
    C   1.0     0.799133     0.410722     0.353766  Biso 1.000000     C
    C   1.0     0.843059     0.903869     0.353750  Biso 1.000000     C
    C   1.0     0.405460     0.429759     0.283587  Biso 1.000000     C
    C   1.0     0.449379     0.922819     0.283645  Biso 1.000000     C
    C   1.0     0.905447     0.429747     0.283600  Biso 1.000000     C
    C   1.0     0.949372     0.922894     0.283577  Biso 1.000000     C
    C   1.0     0.323719     0.418895     0.416197  Biso 1.000000     C
    C   1.0     0.367641     0.911914     0.416256  Biso 1.000000     C
    C   1.0     0.823704     0.418877     0.416208  Biso 1.000000     C
    C   1.0     0.867632     0.912030     0.416189  Biso 1.000000     C
    C   1.0     0.203002     0.008033     0.145215  Biso 1.000000     C
    C   1.0     0.246951     0.501139     0.145085  Biso 1.000000     C
    C   1.0     0.702920     0.008114     0.145155  Biso 1.000000     C
    C   1.0     0.746924     0.501144     0.145085  Biso 1.000000     C
    C   1.0     0.428801     0.440386     0.345808  Biso 1.000000     C
    C   1.0     0.472728     0.933404     0.345875  Biso 1.000000     C
    C   1.0     0.928787     0.440369     0.345822  Biso 1.000000     C
    C   1.0     0.972712     0.933524     0.345798  Biso 1.000000     C
    C   1.0     0.415496     0.437775     0.480543  Biso 1.000000     C
    C   1.0     0.459416     0.930837     0.480591  Biso 1.000000     C
    C   1.0     0.915482     0.437759     0.480555  Biso 1.000000     C
    C   1.0     0.959409     0.930906     0.480536  Biso 1.000000     C
    C   1.0     0.267642     0.372196     0.122498  Biso 1.000000     C
    C   1.0     0.311597     0.865342     0.122556  Biso 1.000000     C
    C   1.0     0.767640     0.372203     0.122488  Biso 1.000000     C
    C   1.0     0.811586     0.865442     0.122429  Biso 1.000000     C
    C   1.0     0.039210     0.058210     0.317521  Biso 1.000000     C
    C   1.0     0.083129     0.551311     0.317555  Biso 1.000000     C
    C   1.0     0.539145     0.058190     0.317579  Biso 1.000000     C
    C   1.0     0.583137     0.551311     0.317533  Biso 1.000000     C
    C   1.0     0.064436     0.164610     0.242441  Biso 1.000000     C
    C   1.0     0.108362     0.657713     0.242476  Biso 1.000000     C
    C   1.0     0.564345     0.164603     0.242504  Biso 1.000000     C
    C   1.0     0.608349     0.657719     0.242454  Biso 1.000000     C
    C   1.0     0.086814     0.275727     0.175241  Biso 1.000000     C
    C   1.0     0.130726     0.768839     0.175269  Biso 1.000000     C
    C   1.0     0.586757     0.275717     0.175282  Biso 1.000000     C
    C   1.0     0.630722     0.768839     0.175253  Biso 1.000000     C
    C   1.0     0.040122     0.120625     0.118150  Biso 1.000000     C
    C   1.0     0.084037     0.613737     0.118181  Biso 1.000000     C
    C   1.0     0.540044     0.120621     0.118204  Biso 1.000000     C
    C   1.0     0.584037     0.613731     0.118165  Biso 1.000000     C
    C   1.0     0.070825     0.206389     0.176929  Biso 1.000000     C
    C   1.0     0.114731     0.699500     0.176967  Biso 1.000000     C
    C   1.0     0.570739     0.206384     0.176992  Biso 1.000000     C
    C   1.0     0.614742     0.699496     0.176940  Biso 1.000000     C
    C   1.0     0.044219     0.102084     0.246948  Biso 1.000000     C
    C   1.0     0.088132     0.595191     0.246983  Biso 1.000000     C
    C   1.0     0.544128     0.102076     0.247008  Biso 1.000000     C
    C   1.0     0.588147     0.595187     0.246960  Biso 1.000000     C
    C   1.0     0.059633     0.183732     0.114506  Biso 1.000000     C
    C   1.0     0.103559     0.676839     0.114540  Biso 1.000000     C
    C   1.0     0.559559     0.183726     0.114566  Biso 1.000000     C
    C   1.0     0.603522     0.676849     0.114523  Biso 1.000000     C
    C   1.0     0.487192     0.263145     0.385466  Biso 1.000000     C
    C   1.0     0.531167     0.756198     0.385436  Biso 1.000000     C
    C   1.0     0.987189     0.263142     0.385392  Biso 1.000000     C
    C   1.0     0.000000     0.756290     0.385425  Biso 1.000000     C
    C   1.0     0.030657     0.080833     0.184754  Biso 1.000000     C
    C   1.0     0.074589     0.573936     0.184782  Biso 1.000000     C
    C   1.0     0.530578     0.080825     0.184807  Biso 1.000000     C
    C   1.0     0.574567     0.573942     0.184770  Biso 1.000000     C
    C   1.0     0.032073     0.095755     0.050109  Biso 1.000000     C
    C   1.0     0.075993     0.588871     0.050134  Biso 1.000000     C
    C   1.0     0.532027     0.095753     0.050149  Biso 1.000000     C
    C   1.0     0.575984     0.588868     0.050120  Biso 1.000000     C
    C   1.0     0.115711     0.231329     0.407729  Biso 1.000000     C
    C   1.0     0.159611     0.724481     0.407803  Biso 1.000000     C
    C   1.0     0.615718     0.231357     0.407728  Biso 1.000000     C
    C   1.0     0.659691     0.724437     0.407702  Biso 1.000000     C
    C   1.0     0.037699    -0.005155     0.848323  Biso 1.000000     C
    C   1.0     0.081615     0.487918     0.848377  Biso 1.000000     C
    C   1.0     0.537681    -0.005203     0.848391  Biso 1.000000     C
    C   1.0     0.581607     0.487924     0.848364  Biso 1.000000     C
    C   1.0     0.145942     0.012179     0.773097  Biso 1.000000     C
    C   1.0     0.189851     0.505257     0.773141  Biso 1.000000     C
    C   1.0     0.645924     0.012114     0.773154  Biso 1.000000     C
    C   1.0     0.689850     0.505244     0.773135  Biso 1.000000     C
    C   1.0     0.258801     0.026536     0.705764  Biso 1.000000     C
    C   1.0     0.302716     0.519611     0.705792  Biso 1.000000     C
    C   1.0     0.758778     0.026494     0.705796  Biso 1.000000     C
    C   1.0     0.802709     0.519618     0.705788  Biso 1.000000     C
    C   1.0     0.097983    -0.006075     0.648752  Biso 1.000000     C
    C   1.0     0.141916     0.486921     0.648809  Biso 1.000000     C
    C   1.0     0.597973    -0.006192     0.648820  Biso 1.000000     C
    C   1.0     0.641904     0.486945     0.648797  Biso 1.000000     C
    C   1.0     0.187679     0.016262     0.707496  Biso 1.000000     C
    C   1.0     0.231602     0.509290     0.707548  Biso 1.000000     C
    C   1.0     0.687663     0.016177     0.707553  Biso 1.000000     C
    C   1.0     0.731593     0.509307     0.707537  Biso 1.000000     C
    C   1.0     0.081363    -0.002761     0.777658  Biso 1.000000     C
    C   1.0     0.125286     0.490270     0.777714  Biso 1.000000     C
    C   1.0     0.581351    -0.002848     0.777725  Biso 1.000000     C
    C   1.0     0.625278     0.490283     0.777701  Biso 1.000000     C
    C   1.0     0.163106     0.008118     0.645050  Biso 1.000000     C
    C   1.0     0.207027     0.501147     0.645104  Biso 1.000000     C
    C   1.0     0.663093     0.008009     0.645116  Biso 1.000000     C
    C   1.0     0.707024     0.501146     0.645096  Biso 1.000000     C
    C   1.0     0.283796     0.418909     0.916208  Biso 1.000000     C
    C   1.0     0.327745     0.912014     0.916100  Biso 1.000000     C
    C   1.0     0.783794     0.418905     0.916214  Biso 1.000000     C
    C   1.0     0.827797     0.911937     0.916143  Biso 1.000000     C
    C   1.0     0.058020    -0.013371     0.715434  Biso 1.000000     C
    C   1.0     0.101942     0.479657     0.715489  Biso 1.000000     C
    C   1.0     0.558012    -0.013485     0.715506  Biso 1.000000     C
    C   1.0     0.601939     0.479655     0.715480  Biso 1.000000     C
    C   1.0     0.071328    -0.010783     0.580713  Biso 1.000000     C
    C   1.0     0.115253     0.482258     0.580759  Biso 1.000000     C
    C   1.0     0.571316    -0.010861     0.580767  Biso 1.000000     C
    C   1.0     0.615244     0.482273     0.580748  Biso 1.000000     C
    C   1.0     0.219144     0.054706     0.938754  Biso 1.000000     C
    C   1.0     0.263098     0.547852     0.938794  Biso 1.000000     C
    C   1.0     0.719127     0.054608     0.938871  Biso 1.000000     C
    C   1.0     0.763075     0.547847     0.938804  Biso 1.000000     C
    C   1.0     0.447612     0.368740     0.743749  Biso 1.000000     C
    C   1.0     0.491537     0.861846     0.743779  Biso 1.000000     C
    C   1.0     0.947584     0.368741     0.743768  Biso 1.000000     C
    C   1.0     0.991574     0.861863     0.743724  Biso 1.000000     C
    C   1.0     0.422372     0.262343     0.818833  Biso 1.000000     C
    C   1.0     0.466316     0.755443     0.818858  Biso 1.000000     C
    C   1.0     0.922364     0.262337     0.818850  Biso 1.000000     C
    C   1.0     0.966367     0.755452     0.818801  Biso 1.000000     C
    C   1.0     0.400015     0.151215     0.886039  Biso 1.000000     C
    C   1.0     0.443931     0.644327     0.886060  Biso 1.000000     C
    C   1.0     0.899998     0.151215     0.886051  Biso 1.000000     C
    C   1.0     0.943961     0.644337     0.886022  Biso 1.000000     C
    C   1.0     0.446710     0.306316     0.943123  Biso 1.000000     C
    C   1.0     0.490622     0.799431     0.943150  Biso 1.000000     C
    C   1.0     0.946684     0.306322     0.943139  Biso 1.000000     C
    C   1.0     0.990673     0.799434     0.943100  Biso 1.000000     C
    C   1.0     0.416010     0.220554     0.884340  Biso 1.000000     C
    C   1.0     0.459920     0.713666     0.884372  Biso 1.000000     C
    C   1.0     0.915980     0.220557     0.884363  Biso 1.000000     C
    C   1.0     0.959976     0.713671     0.884314  Biso 1.000000     C
    C   1.0     0.442609     0.324862     0.814322  Biso 1.000000     C
    C   1.0     0.486529     0.817971     0.814351  Biso 1.000000     C
    C   1.0     0.942574     0.324867     0.814342  Biso 1.000000     C
    C   1.0     0.986588     0.817978     0.814295  Biso 1.000000     C
    C   1.0     0.427178     0.243218     0.946768  Biso 1.000000     C
    C   1.0     0.471115     0.736321     0.946794  Biso 1.000000     C
    C   1.0     0.927188     0.243208     0.946781  Biso 1.000000     C
    C   1.0     0.971150     0.736333     0.946740  Biso 1.000000     C
    C   1.0    -0.000415     0.163844     0.675871  Biso 1.000000     C
    C   1.0     0.043610     0.656844     0.675916  Biso 1.000000     C
    C   1.0     0.499665     0.163721     0.675955  Biso 1.000000     C
    C   1.0     0.543597     0.656845     0.675976  Biso 1.000000     C
    C   1.0     0.456149     0.346120     0.876523  Biso 1.000000     C
    C   1.0     0.500092     0.839221     0.876546  Biso 1.000000     C
    C   1.0     0.956145     0.346115     0.876534  Biso 1.000000     C
    C   1.0     0.000000     0.839232     0.876497  Biso 1.000000     C
    C   1.0     0.454753     0.331182     0.000000  Biso 1.000000     C
    C   1.0     0.498672     0.824299     0.000000  Biso 1.000000     C
    C   1.0     0.954738     0.331186     0.000000  Biso 1.000000     C
    C   1.0     0.998695     0.824301     0.000000  Biso 1.000000     C
    C   1.0     0.371206     0.195602     0.653478  Biso 1.000000     C
    C   1.0     0.415136     0.688753     0.653522  Biso 1.000000     C
    C   1.0     0.871045     0.195619     0.653590  Biso 1.000000     C
    C   1.0     0.915108     0.688729     0.653530  Biso 1.000000     C
    O   1.0     0.012095     0.427453     0.213849  Biso 1.000000     O
    O   1.0     0.056023     0.920579     0.213825  Biso 1.000000     O
    O   1.0     0.512090     0.427459     0.213830  Biso 1.000000     O
    O   1.0     0.556003     0.920545     0.213889  Biso 1.000000     O
    O   1.0     0.468277     0.466443     0.477346  Biso 1.000000     O
    O   1.0     0.512202     0.959504     0.477374  Biso 1.000000     O
    O   1.0     0.968265     0.466426     0.477353  Biso 1.000000     O
    O   1.0     0.000000     0.959574     0.477341  Biso 1.000000     O
    O   1.0     0.145860     0.435089     0.137895  Biso 1.000000     O
    O   1.0     0.189799     0.928205     0.137914  Biso 1.000000     O
    O   1.0     0.645849     0.435080     0.137875  Biso 1.000000     O
    O   1.0     0.689757     0.928212     0.137908  Biso 1.000000     O
    O   1.0     0.188956     0.407510     0.412854  Biso 1.000000     O
    O   1.0     0.232864     0.900595     0.412882  Biso 1.000000     O
    O   1.0     0.688941     0.407500     0.412856  Biso 1.000000     O
    O   1.0     0.732873     0.900627     0.412852  Biso 1.000000     O
    O   1.0     0.385667     0.413111     0.539707  Biso 1.000000     O
    O   1.0     0.429589     0.906192     0.539763  Biso 1.000000     O
    O   1.0     0.885652     0.413102     0.539721  Biso 1.000000     O
    O   1.0     0.929586     0.906234     0.539698  Biso 1.000000     O
    O   1.0     0.425523     0.437141     0.154512  Biso 1.000000     O
    O   1.0     0.469435     0.930231     0.154571  Biso 1.000000     O
    O   1.0     0.925513     0.437142     0.154525  Biso 1.000000     O
    O   1.0     0.969440     0.930263     0.154503  Biso 1.000000     O
    O   1.0     0.211568     0.386954     0.297413  Biso 1.000000     O
    O   1.0     0.255485     0.880053     0.297437  Biso 1.000000     O
    O   1.0     0.711555     0.386952     0.297412  Biso 1.000000     O
    O   1.0     0.755486     0.880074     0.297410  Biso 1.000000     O
    O   1.0     0.083100     0.488836     0.316413  Biso 1.000000     O
    O   1.0     0.127030     0.981967     0.316384  Biso 1.000000     O
    O   1.0     0.583095     0.488838     0.316395  Biso 1.000000     O
    O   1.0     0.626983     0.981946     0.316432  Biso 1.000000     O
    O   1.0    -0.001408     0.046240     0.053311  Biso 1.000000     O
    O   1.0     0.042511     0.539358     0.053327  Biso 1.000000     O
    O   1.0     0.498553     0.046236     0.053331  Biso 1.000000     O
    O   1.0     0.542498     0.539357     0.053317  Biso 1.000000     O
    O   1.0     0.062691     0.356873     0.392274  Biso 1.000000     O
    O   1.0     0.106602     0.850025     0.392280  Biso 1.000000     O
    O   1.0     0.562678     0.356893     0.392276  Biso 1.000000     O
    O   1.0     0.606618     0.849966     0.392281  Biso 1.000000     O
    O   1.0     0.081306     0.315720     0.118217  Biso 1.000000     O
    O   1.0     0.125229     0.808827     0.118237  Biso 1.000000     O
    O   1.0     0.581261     0.315702     0.118249  Biso 1.000000     O
    O   1.0     0.625195     0.808834     0.118233  Biso 1.000000     O
    O   1.0     0.001546     0.057678     0.000000  Biso 1.000000     O
    O   1.0     0.045473     0.550792     0.000000  Biso 1.000000     O
    O   1.0     0.501521     0.057672     0.000000  Biso 1.000000     O
    O   1.0     0.545452     0.550797     0.000000  Biso 1.000000     O
    O   1.0     0.036390     0.081047     0.376060  Biso 1.000000     O
    O   1.0     0.080321     0.574142     0.376096  Biso 1.000000     O
    O   1.0     0.536344     0.081018     0.376121  Biso 1.000000     O
    O   1.0     0.580313     0.574148     0.376072  Biso 1.000000     O
    O   1.0     0.103155     0.289954     0.233064  Biso 1.000000     O
    O   1.0     0.147078     0.783069     0.233085  Biso 1.000000     O
    O   1.0     0.603124     0.289945     0.233091  Biso 1.000000     O
    O   1.0     0.647066     0.783066     0.233074  Biso 1.000000     O
    O   1.0     0.474718    -0.000525     0.847476  Biso 1.000000     O
    O   1.0     0.518645     0.492602     0.847445  Biso 1.000000     O
    O   1.0     0.974719    -0.000495     0.847409  Biso 1.000000     O
    O   1.0     0.000000     0.492601     0.847462  Biso 1.000000     O
    O   1.0     0.018545    -0.039455     0.583929  Biso 1.000000     O
    O   1.0     0.062462     0.453606     0.583954  Biso 1.000000     O
    O   1.0     0.518532    -0.039524     0.583961  Biso 1.000000     O
    O   1.0     0.562457     0.453613     0.583947  Biso 1.000000     O
    O   1.0     0.340946    -0.008151     0.923391  Biso 1.000000     O
    O   1.0     0.384883     0.484964     0.923397  Biso 1.000000     O
    O   1.0     0.840959    -0.008158     0.923389  Biso 1.000000     O
    O   1.0     0.884869     0.484973     0.923416  Biso 1.000000     O
    O   1.0     0.297881     0.019446     0.648428  Biso 1.000000     O
    O   1.0     0.341788     0.512543     0.648444  Biso 1.000000     O
    O   1.0     0.797849     0.019419     0.648450  Biso 1.000000     O
    O   1.0     0.841783     0.512542     0.648445  Biso 1.000000     O
    O   1.0     0.101164     0.013849     0.521540  Biso 1.000000     O
    O   1.0     0.145072     0.506940     0.521598  Biso 1.000000     O
    O   1.0     0.601142     0.013811     0.521606  Biso 1.000000     O
    O   1.0     0.645073     0.506937     0.521585  Biso 1.000000     O
    O   1.0     0.061304    -0.010188     0.906732  Biso 1.000000     O
    O   1.0     0.105216     0.482920     0.906784  Biso 1.000000     O
    O   1.0     0.561282    -0.010212     0.906799  Biso 1.000000     O
    O   1.0     0.605208     0.482910     0.906773  Biso 1.000000     O
    O   1.0     0.275258     0.039990     0.763872  Biso 1.000000     O
    O   1.0     0.319173     0.533105     0.763882  Biso 1.000000     O
    O   1.0     0.775237     0.039979     0.763890  Biso 1.000000     O
    O   1.0     0.819165     0.533099     0.763885  Biso 1.000000     O
    O   1.0     0.403714    -0.061911     0.744917  Biso 1.000000     O
    O   1.0     0.447638     0.431216     0.744888  Biso 1.000000     O
    O   1.0     0.903734    -0.061892     0.744869  Biso 1.000000     O
    O   1.0     0.947622     0.431215     0.744905  Biso 1.000000     O
    O   1.0     0.488232     0.380698     0.000000  Biso 1.000000     O
    O   1.0     0.532155     0.873812     0.000000  Biso 1.000000     O
    O   1.0     0.988224     0.380698     0.000000  Biso 1.000000     O
    O   1.0     0.000000     0.873819     0.000000  Biso 1.000000     O
    O   1.0     0.424145     0.070036     0.669027  Biso 1.000000     O
    O   1.0     0.468060     0.563178     0.669027  Biso 1.000000     O
    O   1.0     0.924109     0.070085     0.669022  Biso 1.000000     O
    O   1.0     0.968053     0.563162     0.669028  Biso 1.000000     O
    O   1.0     0.405511     0.111228     0.943072  Biso 1.000000     O
    O   1.0     0.449437     0.604335     0.943085  Biso 1.000000     O
    O   1.0     0.905518     0.111221     0.943073  Biso 1.000000     O
    O   1.0     0.949455     0.604353     0.943057  Biso 1.000000     O
    O   1.0     0.485269     0.369265     0.009038  Biso 1.000000     O
    O   1.0     0.529201     0.862375     0.009062  Biso 1.000000     O
    O   1.0     0.985272     0.369258     0.009052  Biso 1.000000     O
    O   1.0     0.000000     0.862382     0.009018  Biso 1.000000     O
    O   1.0     0.450422     0.345907     0.685209  Biso 1.000000     O
    O   1.0     0.494360     0.839009     0.685240  Biso 1.000000     O
    O   1.0     0.950407     0.345902     0.685230  Biso 1.000000     O
    O   1.0     0.994380     0.839034     0.685182  Biso 1.000000     O
    O   1.0     0.383664     0.136985     0.828223  Biso 1.000000     O
    O   1.0     0.427594     0.630100     0.828235  Biso 1.000000     O
    O   1.0     0.883655     0.136987     0.828231  Biso 1.000000     O
    O   1.0     0.927597     0.630108     0.828212  Biso 1.000000     O
    S   1.0     0.215095     0.446251     0.097288  Biso 1.000000     S
    S   1.0     0.259045     0.939396     0.097354  Biso 1.000000     S
    S   1.0     0.715085     0.446253     0.097277  Biso 1.000000     S
    S   1.0     0.758970     0.939469     0.097299  Biso 1.000000     S
    S   1.0     0.045969     0.289182     0.433006  Biso 1.000000     S
    S   1.0     0.089868     0.782349     0.433039  Biso 1.000000     S
    S   1.0     0.545979     0.289205     0.433031  Biso 1.000000     S
    S   1.0     0.589937     0.782265     0.433017  Biso 1.000000     S
    S   1.0     0.271702    -0.019345     0.963955  Biso 1.000000     S
    S   1.0     0.315648     0.473800     0.964005  Biso 1.000000     S
    S   1.0     0.771747    -0.019418     0.963999  Biso 1.000000     S
    S   1.0     0.815634     0.473800     0.964016  Biso 1.000000     S
    S   1.0     0.440934     0.137701     0.628286  Biso 1.000000     S
    S   1.0     0.484853     0.630849     0.628304  Biso 1.000000     S
    S   1.0     0.940797     0.137784     0.628285  Biso 1.000000     S
    S   1.0     0.984825     0.630833     0.628287  Biso 1.000000     S
   Ca   1.0     0.037073     0.424376     0.084691  Biso 1.000000    Ca
   Ca   1.0     0.081007     0.917486     0.084675  Biso 1.000000    Ca
   Ca   1.0     0.537060     0.424369     0.084681  Biso 1.000000    Ca
   Ca   1.0     0.580965     0.917487     0.084716  Biso 1.000000    Ca
   Ca   1.0     0.084254     0.461924     0.445751  Biso 1.000000    Ca
   Ca   1.0     0.128176     0.955062     0.445730  Biso 1.000000    Ca
   Ca   1.0     0.584245     0.461935     0.445740  Biso 1.000000    Ca
   Ca   1.0     0.628166     0.955024     0.445766  Biso 1.000000    Ca
   Ca   1.0     0.449736     0.002567     0.976628  Biso 1.000000    Ca
   Ca   1.0     0.493668     0.495681     0.976609  Biso 1.000000    Ca
   Ca   1.0     0.949756     0.002566     0.976586  Biso 1.000000    Ca
   Ca   1.0     0.993663     0.495690     0.976619  Biso 1.000000    Ca
   Ca   1.0     0.402567    -0.035011     0.615572  Biso 1.000000    Ca
   Ca   1.0     0.446487     0.458127     0.615547  Biso 1.000000    Ca
   Ca   1.0     0.902558    -0.034976     0.615535  Biso 1.000000    Ca
   Ca   1.0     0.946479     0.458117     0.615558  Biso 1.000000    Ca
   Ca   1.0     0.107525     0.392507     0.265116  Biso 1.000000    Ca
   Ca   1.0     0.151444     0.885623     0.265117  Biso 1.000000    Ca
   Ca   1.0     0.607511     0.392506     0.265109  Biso 1.000000    Ca
   Ca   1.0     0.651438     0.885613     0.265130  Biso 1.000000    Ca
   Ca   1.0     0.379297     0.034429     0.796186  Biso 1.000000    Ca
   Ca   1.0     0.423215     0.527553     0.796179  Biso 1.000000    Ca
   Ca   1.0     0.879282     0.034439     0.796172  Biso 1.000000    Ca
   Ca   1.0     0.923207     0.527552     0.796186  Biso 1.000000    Ca
