#======================================================================

# CRYSTAL DATA

#----------------------------------------------------------------------

data_VESTA_phase_1


_pd_phase_name                         MOF
_cell_length_a                         13.82800
_cell_length_b                         15.63800
_cell_length_c                         15.64100
_cell_angle_alpha                      90.01800
_cell_angle_beta                       90.00100
_cell_angle_gamma                      89.95700
_symmetry_space_group_name_H-M         "P 1"
_symmetry_Int_Tables_number            1

loop_
_symmetry_equiv_pos_as_xyz
   "x, y, z"

loop_
   _atom_site_label
   _atom_site_occupancy
   _atom_site_fract_x
   _atom_site_fract_y
   _atom_site_fract_z
   _atom_site_adp_type
   _atom_site_B_iso_or_equiv
   _atom_site_type_symbol
    H   1.0     0.499972     0.406806     0.593174  Biso 1.000000     H
    H   1.0     0.500008     0.593194     0.406786  Biso 1.000000     H
    H   1.0    -0.000004     0.906900     0.906854  Biso 1.000000     H
    H   1.0     0.000017     0.093113     0.093121  Biso 1.000000     H
    H   1.0     0.344062     0.237256     0.762802  Biso 1.000000     H
    H   1.0     0.343966     0.762889     0.237183  Biso 1.000000     H
    H   1.0     0.844052     0.737293     0.737171  Biso 1.000000     H
    H   1.0     0.843950     0.262860     0.262781  Biso 1.000000     H
    H   1.0     0.155926     0.262726     0.262799  Biso 1.000000     H
    H   1.0     0.156028     0.737145     0.737202  Biso 1.000000     H
    H   1.0     0.655915     0.762754     0.237168  Biso 1.000000     H
    H   1.0     0.656012     0.237116     0.762782  Biso 1.000000     H
    C   1.0     0.500031     0.162905     0.837067  Biso 1.000000     C
    C   1.0     0.500035     0.228986     0.770984  Biso 1.000000     C
    C   1.0     0.499993     0.357610     0.642369  Biso 1.000000     C
    C   1.0     0.499946     0.837102     0.162899  Biso 1.000000     C
    C   1.0     0.499941     0.771017     0.228978  Biso 1.000000     C
    C   1.0     0.499986     0.642393     0.357594  Biso 1.000000     C
    C   1.0     0.000049     0.662923     0.662891  Biso 1.000000     C
    C   1.0     0.000054     0.729020     0.728987  Biso 1.000000     C
    C   1.0     0.000016     0.857685     0.857645  Biso 1.000000     C
    C   1.0    -0.000038     0.337090     0.337085  Biso 1.000000     C
    C   1.0    -0.000044     0.270993     0.270988  Biso 1.000000     C
    C   1.0    -0.000004     0.142328     0.142331  Biso 1.000000     C
    C   1.0     0.412922     0.261118     0.738887  Biso 1.000000     C
    C   1.0     0.412652     0.325721     0.674260  Biso 1.000000     C
    C   1.0     0.320730     0.356117     0.643853  Biso 1.000000     C
    C   1.0     0.412845     0.738951     0.261077  Biso 1.000000     C
    C   1.0     0.412615     0.674312     0.325678  Biso 1.000000     C
    C   1.0     0.320722     0.643938     0.356057  Biso 1.000000     C
    C   1.0     0.912914     0.761164     0.761087  Biso 1.000000     C
    C   1.0     0.912645     0.825779     0.825739  Biso 1.000000     C
    C   1.0     0.820706     0.856165     0.856119  Biso 1.000000     C
    C   1.0     0.912830     0.238918     0.238881  Biso 1.000000     C
    C   1.0     0.912598     0.174259     0.174263  Biso 1.000000     C
    C   1.0     0.820686     0.143902     0.143904  Biso 1.000000     C
    C   1.0     0.087064     0.238852     0.238885  Biso 1.000000     C
    C   1.0     0.087334     0.174236     0.174234  Biso 1.000000     C
    C   1.0     0.179273     0.143851     0.143854  Biso 1.000000     C
    C   1.0     0.087148     0.761091     0.761097  Biso 1.000000     C
    C   1.0     0.087381     0.825750     0.825716  Biso 1.000000     C
    C   1.0     0.179294     0.856109     0.856072  Biso 1.000000     C
    C   1.0     0.587056     0.738883     0.261073  Biso 1.000000     C
    C   1.0     0.587327     0.674286     0.325707  Biso 1.000000     C
    C   1.0     0.679249     0.643878     0.356102  Biso 1.000000     C
    C   1.0     0.587132     0.261050     0.738883  Biso 1.000000     C
    C   1.0     0.587364     0.325695     0.674287  Biso 1.000000     C
    C   1.0     0.679257     0.356066     0.643907  Biso 1.000000     C
    N   1.0     0.548645     0.072377     0.927792  Biso 1.000000     N
    N   1.0     0.581077     0.128942     0.871339  Biso 1.000000     N
    N   1.0     0.214255     0.423834     0.576052  Biso 1.000000     N
    N   1.0     0.309048     0.417045     0.582803  Biso 1.000000     N
    N   1.0     0.233314     0.326607     0.673453  Biso 1.000000     N
    N   1.0     0.166856     0.368730     0.631308  Biso 1.000000     N
    N   1.0     0.548626     0.927787     0.072413  Biso 1.000000     N
    N   1.0     0.581015     0.871301     0.129008  Biso 1.000000     N
    N   1.0     0.214305     0.576159     0.423741  Biso 1.000000     N
    N   1.0     0.309092     0.582874     0.416969  Biso 1.000000     N
    N   1.0     0.233276     0.673556     0.326510  Biso 1.000000     N
    N   1.0     0.166859     0.631428     0.368607  Biso 1.000000     N
    N   1.0     0.048662     0.572370     0.572140  Biso 1.000000     N
    N   1.0     0.081093     0.628953     0.628612  Biso 1.000000     N
    N   1.0     0.714165     0.923845     0.923902  Biso 1.000000     N
    N   1.0     0.808965     0.917088     0.917198  Biso 1.000000     N
    N   1.0     0.733319     0.826602     0.826479  Biso 1.000000     N
    N   1.0     0.666818     0.868700     0.868618  Biso 1.000000     N
    N   1.0     0.048643     0.427801     0.427597  Biso 1.000000     N
    N   1.0     0.081029     0.371303     0.370979  Biso 1.000000     N
    N   1.0     0.714201     0.076148     0.076247  Biso 1.000000     N
    N   1.0     0.808995     0.082826     0.082979  Biso 1.000000     N
    N   1.0     0.733270     0.173557     0.173503  Biso 1.000000     N
    N   1.0     0.666808     0.131443     0.131421  Biso 1.000000     N
    N   1.0     0.951316     0.427645     0.427834  Biso 1.000000     N
    N   1.0     0.918885     0.371059     0.371365  Biso 1.000000     N
    N   1.0     0.285814     0.076172     0.076070  Biso 1.000000     N
    N   1.0     0.191014     0.082928     0.082775  Biso 1.000000     N
    N   1.0     0.266661     0.173422     0.173486  Biso 1.000000     N
    N   1.0     0.333161     0.131322     0.131348  Biso 1.000000     N
    N   1.0     0.951334     0.572212     0.572379  Biso 1.000000     N
    N   1.0     0.918948     0.628712     0.628995  Biso 1.000000     N
    N   1.0     0.285778     0.923864     0.923728  Biso 1.000000     N
    N   1.0     0.190984     0.917184     0.916998  Biso 1.000000     N
    N   1.0     0.266709     0.826445     0.826482  Biso 1.000000     N
    N   1.0     0.333171     0.868562     0.868562  Biso 1.000000     N
    N   1.0     0.451333     0.927636     0.072180  Biso 1.000000     N
    N   1.0     0.418901     0.871070     0.128632  Biso 1.000000     N
    N   1.0     0.785724     0.576174     0.423914  Biso 1.000000     N
    N   1.0     0.690931     0.582971     0.417171  Biso 1.000000     N
    N   1.0     0.766665     0.673408     0.326521  Biso 1.000000     N
    N   1.0     0.833123     0.631297     0.368678  Biso 1.000000     N
    N   1.0     0.451352     0.072225     0.927560  Biso 1.000000     N
    N   1.0     0.418963     0.128707     0.870960  Biso 1.000000     N
    N   1.0     0.785674     0.423851     0.576229  Biso 1.000000     N
    N   1.0     0.690886     0.417133     0.582998  Biso 1.000000     N
    N   1.0     0.766703     0.326465     0.673470  Biso 1.000000     N
    N   1.0     0.833120     0.368600     0.631380  Biso 1.000000     N
   Zn   1.0     0.638398     0.000020     0.000091  Biso 1.000000    Zn
   Zn   1.0     0.138523     0.500030     0.499896  Biso 1.000000    Zn
   Zn   1.0     0.861455     0.499985     0.500079  Biso 1.000000    Zn
   Zn   1.0     0.361563    -0.000020    -0.000090  Biso 1.000000    Zn
