#======================================================================

# CRYSTAL DATA

#----------------------------------------------------------------------

data_VESTA_phase_1


_pd_phase_name                         MOF
_cell_length_a                         17.67500
_cell_length_b                         17.66100
_cell_length_c                         17.68400
_cell_angle_alpha                      90.65900
_cell_angle_beta                       119.54300
_cell_angle_gamma                      119.71400
_symmetry_space_group_name_H-M         "P 1"
_symmetry_Int_Tables_number            1

loop_
_symmetry_equiv_pos_as_xyz
   "x, y, z"

loop_
   _atom_site_label
   _atom_site_occupancy
   _atom_site_fract_x
   _atom_site_fract_y
   _atom_site_fract_z
   _atom_site_adp_type
   _atom_site_B_iso_or_equiv
   _atom_site_type_symbol
    H   1.0     0.867540     0.518572     0.929120  Biso 1.000000     H
    H   1.0     0.015427     0.690645     0.013306  Biso 1.000000     H
    H   1.0     0.163799     0.761112     0.995134  Biso 1.000000     H
    H   1.0     0.210354     0.464379     0.807158  Biso 1.000000     H
    H   1.0     0.261445     0.357032     0.826158  Biso 1.000000     H
    H   1.0     0.998537     0.176917     0.847911  Biso 1.000000     H
    H   1.0     0.956284     0.293674     0.824091  Biso 1.000000     H
    H   1.0     0.317322     0.272438     0.915665  Biso 1.000000     H
    H   1.0     0.237321     0.214777     0.793448  Biso 1.000000     H
    H   1.0     0.632971     0.561914     0.651278  Biso 1.000000     H
    H   1.0     0.485225     0.498403     0.675434  Biso 1.000000     H
    H   1.0     0.336495     0.331762     0.597280  Biso 1.000000     H
    H   1.0     0.289345     0.096615     0.253818  Biso 1.000000     H
    H   1.0     0.238794     0.064559     0.095707  Biso 1.000000     H
    H   1.0     0.502210     0.349434     0.179170  Biso 1.000000     H
    H   1.0     0.543952     0.367812     0.337854  Biso 1.000000     H
    H   1.0     0.183555     0.098271     0.955676  Biso 1.000000     H
    H   1.0     0.263514     0.055957     0.977946  Biso 1.000000     H
    H   1.0     0.589960     0.071237     0.438734  Biso 1.000000     H
    H   1.0     0.678186     0.987594     0.502201  Biso 1.000000     H
    H   1.0     0.766395     0.005710     0.668385  Biso 1.000000     H
    H   1.0     0.656171     0.192249     0.902814  Biso 1.000000     H
    H   1.0     0.530897     0.174706     0.935784  Biso 1.000000     H
    H   1.0     0.329486     0.153185     0.652015  Biso 1.000000     H
    H   1.0     0.469011     0.175589     0.632622  Biso 1.000000     H
    H   1.0     0.357204     0.085985     0.902778  Biso 1.000000     H
    H   1.0     0.422199     0.208559     0.945266  Biso 1.000000     H
    H   1.0     0.910060     0.348363     0.481455  Biso 1.000000     H
    H   1.0     0.822338     0.323968     0.309832  Biso 1.000000     H
    H   1.0     0.734291     0.402183     0.239723  Biso 1.000000     H
    H   1.0     0.844113     0.746908     0.536536  Biso 1.000000     H
    H   1.0     0.969846     0.905230     0.644498  Biso 1.000000     H
    H   1.0     0.170689     0.821944     0.823628  Biso 1.000000     H
    H   1.0     0.030745     0.662986     0.706307  Biso 1.000000     H
    H   1.0     0.143614     0.045839     0.729566  Biso 1.000000     H
    H   1.0     0.078689     0.023211     0.787076  Biso 1.000000     H
    H   1.0     0.410063     0.928715     0.561262  Biso 1.000000     H
    H   1.0     0.321858     0.012375     0.497797  Biso 1.000000     H
    H   1.0     0.233651     0.994258     0.331613  Biso 1.000000     H
    H   1.0     0.343857     0.807704     0.097189  Biso 1.000000     H
    H   1.0     0.469140     0.825263     0.064223  Biso 1.000000     H
    H   1.0     0.670554     0.846791     0.347994  Biso 1.000000     H
    H   1.0     0.531019     0.824369     0.367381  Biso 1.000000     H
    H   1.0     0.642831     0.913978     0.097216  Biso 1.000000     H
    H   1.0     0.577840     0.791402     0.054752  Biso 1.000000     H
    H   1.0     0.089973     0.651599     0.518549  Biso 1.000000     H
    H   1.0     0.177688     0.675983     0.690170  Biso 1.000000     H
    H   1.0     0.265732     0.597765     0.760274  Biso 1.000000     H
    H   1.0     0.155923     0.253064     0.463470  Biso 1.000000     H
    H   1.0     0.030196     0.094740     0.355513  Biso 1.000000     H
    H   1.0     0.829343     0.178013     0.176372  Biso 1.000000     H
    H   1.0     0.969281     0.336973     0.293688  Biso 1.000000     H
    H   1.0     0.856424     0.954126     0.270445  Biso 1.000000     H
    H   1.0     0.921351     0.976749     0.212937  Biso 1.000000     H
    H   1.0     0.132493     0.481381     0.070880  Biso 1.000000     H
    H   1.0     0.984606     0.309307     0.986696  Biso 1.000000     H
    H   1.0     0.836233     0.238841     0.004868  Biso 1.000000     H
    H   1.0     0.789674     0.535572     0.192839  Biso 1.000000     H
    H   1.0     0.738588     0.642922     0.173851  Biso 1.000000     H
    H   1.0     0.001501     0.823045     0.152107  Biso 1.000000     H
    H   1.0     0.043749     0.706285     0.175914  Biso 1.000000     H
    H   1.0     0.682716     0.727523     0.084348  Biso 1.000000     H
    H   1.0     0.762707     0.785184     0.206564  Biso 1.000000     H
    H   1.0     0.367074     0.438048     0.348727  Biso 1.000000     H
    H   1.0     0.514815     0.501570     0.324562  Biso 1.000000     H
    H   1.0     0.663539     0.668212     0.402718  Biso 1.000000     H
    H   1.0     0.710691     0.903347     0.746192  Biso 1.000000     H
    H   1.0     0.761246     0.935401     0.904304  Biso 1.000000     H
    H   1.0     0.497822     0.650528     0.820837  Biso 1.000000     H
    H   1.0     0.456078     0.632153     0.662153  Biso 1.000000     H
    H   1.0     0.816486     0.901683     0.044336  Biso 1.000000     H
    H   1.0     0.736532     0.944004     0.022065  Biso 1.000000     H
    C   1.0     0.860237     0.398634     0.815518  Biso 1.000000     C
    C   1.0     0.940259     0.501147     0.868861  Biso 1.000000     C
    C   1.0     0.934428     0.552893     0.923369  Biso 1.000000     C
    C   1.0     0.015820     0.647445     0.969221  Biso 1.000000     C
    C   1.0     0.099754     0.687706     0.959333  Biso 1.000000     C
    C   1.0     0.100629     0.631729     0.903844  Biso 1.000000     C
    C   1.0     0.186465     0.665681     0.886019  Biso 1.000000     C
    C   1.0     0.165380     0.400617     0.817093  Biso 1.000000     C
    C   1.0     0.194537     0.339388     0.828608  Biso 1.000000     C
    C   1.0     0.134578     0.257532     0.840456  Biso 1.000000     C
    C   1.0     0.047681     0.240244     0.839803  Biso 1.000000     C
    C   1.0     0.024258     0.304855     0.827297  Biso 1.000000     C
    C   1.0     0.244868     0.208152     0.858186  Biso 1.000000     C
    C   1.0     0.639771     0.455311     0.538452  Biso 1.000000     C
    C   1.0     0.559882     0.428766     0.560957  Biso 1.000000     C
    C   1.0     0.565944     0.489246     0.618621  Biso 1.000000     C
    C   1.0     0.484610     0.453770     0.631750  Biso 1.000000     C
    C   1.0     0.400485     0.359904     0.587935  Biso 1.000000     C
    C   1.0     0.399388     0.303398     0.531005  Biso 1.000000     C
    C   1.0     0.313371     0.199654     0.479028  Biso 1.000000     C
    C   1.0     0.334573     0.151571     0.235256  Biso 1.000000     C
    C   1.0     0.305719     0.133955     0.145053  Biso 1.000000     C
    C   1.0     0.365981     0.205817     0.123434  Biso 1.000000     C
    C   1.0     0.452848     0.292108     0.193131  Biso 1.000000     C
    C   1.0     0.475975     0.302993     0.280974  Biso 1.000000     C
    C   1.0     0.256008     0.113265     0.963899  Biso 1.000000     C
    C   1.0     0.582661     0.184014     0.544890  Biso 1.000000     C
    C   1.0     0.632036     0.131003     0.571430  Biso 1.000000     C
    C   1.0     0.629798     0.076920     0.511195  Biso 1.000000     C
    C   1.0     0.678708     0.031401     0.546633  Biso 1.000000     C
    C   1.0     0.728591     0.041229     0.640240  Biso 1.000000     C
    C   1.0     0.727562     0.096264     0.696505  Biso 1.000000     C
    C   1.0     0.779078     0.114047     0.799949  Biso 1.000000     C
    C   1.0     0.582828     0.182733     0.848319  Biso 1.000000     C
    C   1.0     0.510684     0.172039     0.866452  Biso 1.000000     C
    C   1.0     0.417452     0.160737     0.795171  Biso 1.000000     C
    C   1.0     0.400637     0.161010     0.708903  Biso 1.000000     C
    C   1.0     0.477141     0.172693     0.697459  Biso 1.000000     C
    C   1.0     0.350755     0.143670     0.888071  Biso 1.000000     C
    C   1.0     0.916956     0.461678     0.601283  Biso 1.000000     C
    C   1.0     0.867824     0.438990     0.499026  Biso 1.000000     C
    C   1.0     0.870277     0.381080     0.447302  Biso 1.000000     C
    C   1.0     0.821649     0.367818     0.352997  Biso 1.000000     C
    C   1.0     0.771854     0.411678     0.312946  Biso 1.000000     C
    C   1.0     0.772652     0.468872     0.368888  Biso 1.000000     C
    C   1.0     0.721196     0.520930     0.335137  Biso 1.000000     C
    C   1.0     0.917446     0.765561     0.600238  Biso 1.000000     C
    C   1.0    -0.010180     0.855885     0.661834  Biso 1.000000     C
    C   1.0     0.083035     0.877610     0.743612  Biso 1.000000     C
    C   1.0     0.099576     0.807881     0.760418  Biso 1.000000     C
    C   1.0     0.022835     0.719905     0.695481  Biso 1.000000     C
    C   1.0     0.150077     0.037435     0.793600  Biso 1.000000     C
    C   1.0     0.250442     0.125631     0.875951  Biso 1.000000     C
    C   1.0     0.417348     0.815924     0.455105  Biso 1.000000     C
    C   1.0     0.367990     0.868949     0.428568  Biso 1.000000     C
    C   1.0     0.370210     0.923018     0.488797  Biso 1.000000     C
    C   1.0     0.321336     0.968567     0.453366  Biso 1.000000     C
    C   1.0     0.271436     0.958724     0.359755  Biso 1.000000     C
    C   1.0     0.272492     0.903710     0.303497  Biso 1.000000     C
    C   1.0     0.220959     0.885910     0.200048  Biso 1.000000     C
    C   1.0     0.417203     0.817225     0.151684  Biso 1.000000     C
    C   1.0     0.489351     0.827928     0.133554  Biso 1.000000     C
    C   1.0     0.582587     0.839239     0.204838  Biso 1.000000     C
    C   1.0     0.599401     0.838962     0.291105  Biso 1.000000     C
    C   1.0     0.522891     0.827269     0.302545  Biso 1.000000     C
    C   1.0     0.649284     0.856298     0.111938  Biso 1.000000     C
    C   1.0     0.083082     0.538290     0.398718  Biso 1.000000     C
    C   1.0     0.132203     0.560968     0.500973  Biso 1.000000     C
    C   1.0     0.129767     0.618890     0.552702  Biso 1.000000     C
    C   1.0     0.178371     0.632131     0.647002  Biso 1.000000     C
    C   1.0     0.228186     0.588286     0.687056  Biso 1.000000     C
    C   1.0     0.227378     0.531086     0.631109  Biso 1.000000     C
    C   1.0     0.278842     0.479034     0.664857  Biso 1.000000     C
    C   1.0     0.082589     0.234407     0.399766  Biso 1.000000     C
    C   1.0     0.000000     0.144082     0.338173  Biso 1.000000     C
    C   1.0     0.917003     0.122353     0.256394  Biso 1.000000     C
    C   1.0     0.900457     0.192080     0.239583  Biso 1.000000     C
    C   1.0     0.977194     0.280057     0.304517  Biso 1.000000     C
    C   1.0     0.849963     0.962527     0.206411  Biso 1.000000     C
    C   1.0     0.139797     0.601319     0.184484  Biso 1.000000     C
    C   1.0     0.059780     0.498804     0.131148  Biso 1.000000     C
    C   1.0     0.065604     0.447059     0.076631  Biso 1.000000     C
    C   1.0     0.984215     0.352506     0.030783  Biso 1.000000     C
    C   1.0     0.900272     0.312249     0.040662  Biso 1.000000     C
    C   1.0     0.899393     0.368230     0.096142  Biso 1.000000     C
    C   1.0     0.813559     0.334275     0.113971  Biso 1.000000     C
    C   1.0     0.834651     0.599337     0.182910  Biso 1.000000     C
    C   1.0     0.805497     0.660568     0.171401  Biso 1.000000     C
    C   1.0     0.865459     0.742428     0.159561  Biso 1.000000     C
    C   1.0     0.952356     0.759717     0.160211  Biso 1.000000     C
    C   1.0     0.975776     0.695104     0.172711  Biso 1.000000     C
    C   1.0     0.755168     0.791809     0.141829  Biso 1.000000     C
    C   1.0     0.360269     0.544645     0.461555  Biso 1.000000     C
    C   1.0     0.440154     0.571195     0.439044  Biso 1.000000     C
    C   1.0     0.434104     0.510715     0.381391  Biso 1.000000     C
    C   1.0     0.515427     0.546199     0.368248  Biso 1.000000     C
    C   1.0     0.599557     0.640064     0.412073  Biso 1.000000     C
    C   1.0     0.600642     0.696569     0.468993  Biso 1.000000     C
    C   1.0     0.686663     0.800310     0.520980  Biso 1.000000     C
    C   1.0     0.665463     0.848390     0.764753  Biso 1.000000     C
    C   1.0     0.694317     0.866006     0.854956  Biso 1.000000     C
    C   1.0     0.634055     0.794144     0.876576  Biso 1.000000     C
    C   1.0     0.547185     0.707855     0.806877  Biso 1.000000     C
    C   1.0     0.524057     0.696971     0.719034  Biso 1.000000     C
    C   1.0     0.744033     0.886693     0.036112  Biso 1.000000     C
    C   1.0     0.749597     0.874330     0.124060  Biso 1.000000     C
    N   1.0     0.082065     0.384729     0.816412  Biso 1.000000     N
    N   1.0     0.021993     0.540985     0.860855  Biso 1.000000     N
    N   1.0     0.417891     0.234237     0.302775  Biso 1.000000     N
    N   1.0     0.477963     0.338963     0.518925  Biso 1.000000     N
    N   1.0     0.567472     0.183116     0.765677  Biso 1.000000     N
    N   1.0     0.679568     0.138899     0.660966  Biso 1.000000     N
    N   1.0     0.932554     0.698018     0.615713  Biso 1.000000     N
    N   1.0     0.820355     0.481112     0.459395  Biso 1.000000     N
    N   1.0     0.432557     0.816840     0.234325  Biso 1.000000     N
    N   1.0     0.320483     0.861074     0.339037  Biso 1.000000     N
    N   1.0     0.067476     0.301946     0.384287  Biso 1.000000     N
    N   1.0     0.179673     0.518846     0.540602  Biso 1.000000     N
    N   1.0     0.917965     0.615227     0.183589  Biso 1.000000     N
    N   1.0     0.978036     0.458971     0.139139  Biso 1.000000     N
    N   1.0     0.582143     0.765726     0.697232  Biso 1.000000     N
    N   1.0     0.522065     0.661001     0.481070  Biso 1.000000     N
    O   1.0     0.875492     0.362043     0.767753  Biso 1.000000     O
    O   1.0     0.782864     0.355480     0.823753  Biso 1.000000     O
    O   1.0     0.172351     0.602373     0.832611  Biso 1.000000     O
    O   1.0     0.260786     0.749773     0.922384  Biso 1.000000     O
    O   1.0     0.153336     0.191372     0.852197  Biso 1.000000     O
    O   1.0     0.624429     0.392126     0.486684  Biso 1.000000     O
    O   1.0     0.717132     0.540997     0.572554  Biso 1.000000     O
    O   1.0     0.327273     0.160247     0.429735  Biso 1.000000     O
    O   1.0     0.239155     0.161739     0.488838  Biso 1.000000     O
    O   1.0     0.347546     0.198819     0.038724  Biso 1.000000     O
    O   1.0     0.593588     0.231601     0.607849  Biso 1.000000     O
    O   1.0     0.531406     0.175733     0.459472  Biso 1.000000     O
    O   1.0     0.768519     0.166875     0.839140  Biso 1.000000     O
    O   1.0     0.827271     0.078229     0.837860  Biso 1.000000     O
    O   1.0     0.340192     0.149862     0.802713  Biso 1.000000     O
    O   1.0     0.905811     0.513612     0.637824  Biso 1.000000     O
    O   1.0     0.968310     0.427554     0.644319  Biso 1.000000     O
    O   1.0     0.731422     0.570479     0.398390  Biso 1.000000     O
    O   1.0     0.673363     0.510928     0.251247  Biso 1.000000     O
    O   1.0     0.160523     0.962437     0.810101  Biso 1.000000     O
    O   1.0     0.406430     0.768344     0.392148  Biso 1.000000     O
    O   1.0     0.468619     0.824219     0.540526  Biso 1.000000     O
    O   1.0     0.231510     0.833075     0.160857  Biso 1.000000     O
    O   1.0     0.172772     0.921733     0.162135  Biso 1.000000     O
    O   1.0     0.659855     0.850126     0.197302  Biso 1.000000     O
    O   1.0     0.094230     0.486358     0.362178  Biso 1.000000     O
    O   1.0     0.031722     0.572409     0.355682  Biso 1.000000     O
    O   1.0     0.268610     0.429482     0.601601  Biso 1.000000     O
    O   1.0     0.326659     0.489019     0.748744  Biso 1.000000     O
    O   1.0     0.839517     0.037525     0.189907  Biso 1.000000     O
    O   1.0     0.124535     0.637913     0.232238  Biso 1.000000     O
    O   1.0     0.217159     0.644475     0.176236  Biso 1.000000     O
    O   1.0     0.827689     0.397577     0.167401  Biso 1.000000     O
    O   1.0     0.739250     0.250180     0.077619  Biso 1.000000     O
    O   1.0     0.846706     0.808591     0.147827  Biso 1.000000     O
    O   1.0     0.375613     0.607828     0.513328  Biso 1.000000     O
    O   1.0     0.282896     0.458962     0.427437  Biso 1.000000     O
    O   1.0     0.672758     0.839715     0.570271  Biso 1.000000     O
    O   1.0     0.760877     0.838231     0.511166  Biso 1.000000     O
    O   1.0     0.652493     0.801141     0.961287  Biso 1.000000     O
   Zn   1.0     0.031660     0.468710     0.779807  Biso 1.000000    Zn
   Zn   1.0     0.467997     0.247947     0.436980  Biso 1.000000    Zn
   Zn   1.0     0.687889     0.219605     0.751564  Biso 1.000000    Zn
   Zn   1.0     0.811873     0.563415     0.531624  Biso 1.000000    Zn
   Zn   1.0     0.312143     0.780349     0.248438  Biso 1.000000    Zn
   Zn   1.0     0.188156     0.436550     0.468368  Biso 1.000000    Zn
   Zn   1.0     0.968371     0.531243     0.220192  Biso 1.000000    Zn
   Zn   1.0     0.532034     0.752012     0.563025  Biso 1.000000    Zn
