#======================================================================

# CRYSTAL DATA

#----------------------------------------------------------------------

data_VESTA_phase_1


_pd_phase_name                         MOF
_cell_length_a                         20.21100
_cell_length_b                         23.02300
_cell_length_c                         14.94300
_cell_angle_alpha                      91.18600
_cell_angle_beta                       89.99700
_cell_angle_gamma                      89.94800
_symmetry_space_group_name_H-M         "P 1"
_symmetry_Int_Tables_number            1

loop_
_symmetry_equiv_pos_as_xyz
   "x, y, z"

loop_
   _atom_site_label
   _atom_site_occupancy
   _atom_site_fract_x
   _atom_site_fract_y
   _atom_site_fract_z
   _atom_site_adp_type
   _atom_site_B_iso_or_equiv
   _atom_site_type_symbol
    H   1.0     0.378791     0.429239     0.371559  Biso 1.000000     H
    H   1.0     0.378793     0.929245     0.371560  Biso 1.000000     H
    H   1.0     0.878779     0.429238     0.371560  Biso 1.000000     H
    H   1.0     0.878781     0.929243     0.371561  Biso 1.000000     H
    H   1.0     0.028044     0.236538     0.268278  Biso 1.000000     H
    H   1.0     0.028051     0.736544     0.268277  Biso 1.000000     H
    H   1.0     0.528031     0.236538     0.268279  Biso 1.000000     H
    H   1.0     0.528034     0.736544     0.268278  Biso 1.000000     H
    H   1.0     0.304509     0.279999     0.047178  Biso 1.000000     H
    H   1.0     0.304512     0.780008     0.047175  Biso 1.000000     H
    H   1.0     0.804498     0.280003     0.047173  Biso 1.000000     H
    H   1.0     0.804500     0.780005     0.047178  Biso 1.000000     H
    H   1.0     0.105299     0.490428     0.230356  Biso 1.000000     H
    H   1.0     0.105301     0.990435     0.230357  Biso 1.000000     H
    H   1.0     0.605288     0.490428     0.230356  Biso 1.000000     H
    H   1.0     0.605291     0.990434     0.230356  Biso 1.000000     H
    H   1.0     0.080908     0.344084     0.921652  Biso 1.000000     H
    H   1.0     0.080912     0.844090     0.921653  Biso 1.000000     H
    H   1.0     0.580894     0.344084     0.921647  Biso 1.000000     H
    H   1.0     0.580899     0.844090     0.921651  Biso 1.000000     H
    H   1.0     0.354155     0.001226     0.012255  Biso 1.000000     H
    H   1.0     0.354158     0.501232     0.012255  Biso 1.000000     H
    H   1.0     0.854143     0.001225     0.012254  Biso 1.000000     H
    H   1.0     0.854146     0.501231     0.012254  Biso 1.000000     H
    H   1.0     0.128886     0.320770     0.128490  Biso 1.000000     H
    H   1.0     0.128889     0.820776     0.128490  Biso 1.000000     H
    H   1.0     0.628874     0.320772     0.128489  Biso 1.000000     H
    H   1.0     0.628877     0.820777     0.128490  Biso 1.000000     H
    H   1.0     0.277931     0.013449     0.231710  Biso 1.000000     H
    H   1.0     0.277935     0.513455     0.231710  Biso 1.000000     H
    H   1.0     0.777921     0.013448     0.231710  Biso 1.000000     H
    H   1.0     0.777925     0.513455     0.231711  Biso 1.000000     H
    H   1.0     0.054475     0.470233     0.452815  Biso 1.000000     H
    H   1.0     0.054478     0.970237     0.452818  Biso 1.000000     H
    H   1.0     0.554464     0.470231     0.452817  Biso 1.000000     H
    H   1.0     0.554467     0.970239     0.452815  Biso 1.000000     H
    H   1.0     0.355344     0.259490     0.269656  Biso 1.000000     H
    H   1.0     0.355347     0.759496     0.269656  Biso 1.000000     H
    H   1.0     0.855332     0.259490     0.269655  Biso 1.000000     H
    H   1.0     0.855336     0.759497     0.269657  Biso 1.000000     H
    H   1.0     0.330923     0.405833     0.578296  Biso 1.000000     H
    H   1.0     0.330926     0.905839     0.578297  Biso 1.000000     H
    H   1.0     0.830912     0.405833     0.578294  Biso 1.000000     H
    H   1.0     0.830914     0.905839     0.578296  Biso 1.000000     H
    H   1.0     0.104270     0.248880     0.487853  Biso 1.000000     H
    H   1.0     0.104272     0.748886     0.487853  Biso 1.000000     H
    H   1.0     0.604258     0.248880     0.487853  Biso 1.000000     H
    H   1.0     0.604261     0.748886     0.487852  Biso 1.000000     H
    H   1.0     0.121197     0.070769     0.628454  Biso 1.000000     H
    H   1.0     0.121200     0.570777     0.628452  Biso 1.000000     H
    H   1.0     0.621186     0.070773     0.628452  Biso 1.000000     H
    H   1.0     0.621189     0.570778     0.628452  Biso 1.000000     H
    H   1.0     0.471942     0.263470     0.731735  Biso 1.000000     H
    H   1.0     0.471946     0.763477     0.731735  Biso 1.000000     H
    H   1.0     0.971936     0.263471     0.731734  Biso 1.000000     H
    H   1.0     0.971933     0.763477     0.731736  Biso 1.000000     H
    H   1.0     0.195479     0.220007     0.952838  Biso 1.000000     H
    H   1.0     0.195481     0.720011     0.952839  Biso 1.000000     H
    H   1.0     0.695467     0.220007     0.952837  Biso 1.000000     H
    H   1.0     0.695470     0.720013     0.952837  Biso 1.000000     H
    H   1.0     0.394691     0.009579     0.769655  Biso 1.000000     H
    H   1.0     0.394692     0.509585     0.769656  Biso 1.000000     H
    H   1.0     0.894677     0.009580     0.769657  Biso 1.000000     H
    H   1.0     0.894680     0.509586     0.769657  Biso 1.000000     H
    H   1.0     0.419078     0.155924     0.078359  Biso 1.000000     H
    H   1.0     0.419081     0.655930     0.078360  Biso 1.000000     H
    H   1.0     0.919070     0.155924     0.078364  Biso 1.000000     H
    H   1.0     0.919072     0.655930     0.078362  Biso 1.000000     H
    H   1.0     0.145833     0.498783     0.987759  Biso 1.000000     H
    H   1.0     0.145836     0.998789     0.987759  Biso 1.000000     H
    H   1.0     0.645821     0.498783     0.987759  Biso 1.000000     H
    H   1.0     0.645824     0.998789     0.987759  Biso 1.000000     H
    H   1.0     0.371102     0.179238     0.871523  Biso 1.000000     H
    H   1.0     0.371104     0.679245     0.871523  Biso 1.000000     H
    H   1.0     0.871090     0.179239     0.871523  Biso 1.000000     H
    H   1.0     0.871093     0.679244     0.871523  Biso 1.000000     H
    H   1.0     0.222055     0.486560     0.768303  Biso 1.000000     H
    H   1.0     0.222061     0.986565     0.768304  Biso 1.000000     H
    H   1.0     0.722044     0.486560     0.768303  Biso 1.000000     H
    H   1.0     0.722048     0.986566     0.768303  Biso 1.000000     H
    H   1.0     0.445513     0.029779     0.547193  Biso 1.000000     H
    H   1.0     0.445515     0.529784     0.547195  Biso 1.000000     H
    H   1.0     0.945501     0.029775     0.547199  Biso 1.000000     H
    H   1.0     0.945504     0.529783     0.547197  Biso 1.000000     H
    H   1.0     0.144644     0.240518     0.730357  Biso 1.000000     H
    H   1.0     0.144646     0.740524     0.730357  Biso 1.000000     H
    H   1.0     0.644631     0.240517     0.730356  Biso 1.000000     H
    H   1.0     0.644634     0.740523     0.730356  Biso 1.000000     H
    H   1.0     0.169064     0.094176     0.421718  Biso 1.000000     H
    H   1.0     0.169069     0.594182     0.421716  Biso 1.000000     H
    H   1.0     0.669055     0.094176     0.421714  Biso 1.000000     H
    H   1.0     0.669057     0.594182     0.421715  Biso 1.000000     H
    H   1.0     0.395718     0.251128     0.512160  Biso 1.000000     H
    H   1.0     0.395721     0.751135     0.512160  Biso 1.000000     H
    H   1.0     0.895707     0.251129     0.512162  Biso 1.000000     H
    H   1.0     0.895709     0.751135     0.512161  Biso 1.000000     H
    C   1.0     0.419339     0.413075     0.328288  Biso 1.000000     C
    C   1.0     0.419342     0.913082     0.328289  Biso 1.000000     C
    C   1.0     0.919327     0.413075     0.328289  Biso 1.000000     C
    C   1.0     0.919330     0.913081     0.328289  Biso 1.000000     C
    C   1.0     0.013503     0.259337     0.206904  Biso 1.000000     C
    C   1.0     0.013507     0.759343     0.206904  Biso 1.000000     C
    C   1.0     0.513490     0.259337     0.206904  Biso 1.000000     C
    C   1.0     0.513493     0.759343     0.206904  Biso 1.000000     C
    C   1.0     0.358345     0.287537     0.053550  Biso 1.000000     C
    C   1.0     0.358347     0.787545     0.053548  Biso 1.000000     C
    C   1.0     0.858333     0.287540     0.053548  Biso 1.000000     C
    C   1.0     0.858336     0.787543     0.053550  Biso 1.000000     C
    C   1.0     0.068604     0.475856     0.179675  Biso 1.000000     C
    C   1.0     0.068607     0.975862     0.179675  Biso 1.000000     C
    C   1.0     0.568592     0.475856     0.179675  Biso 1.000000     C
    C   1.0     0.568595     0.975862     0.179675  Biso 1.000000     C
    C   1.0     0.050521     0.371454     0.967039  Biso 1.000000     C
    C   1.0     0.050524     0.871460     0.967039  Biso 1.000000     C
    C   1.0     0.550508     0.371454     0.967036  Biso 1.000000     C
    C   1.0     0.550512     0.871460     0.967038  Biso 1.000000     C
    C   1.0     0.363185     0.464911     0.057584  Biso 1.000000     C
    C   1.0     0.363188     0.964918     0.057584  Biso 1.000000     C
    C   1.0     0.863174     0.464911     0.057584  Biso 1.000000     C
    C   1.0     0.863176     0.964917     0.057584  Biso 1.000000     C
    C   1.0     0.169403     0.336947     0.171740  Biso 1.000000     C
    C   1.0     0.169406     0.836953     0.171740  Biso 1.000000     C
    C   1.0     0.669391     0.336947     0.171740  Biso 1.000000     C
    C   1.0     0.669394     0.836953     0.171740  Biso 1.000000     C
    C   1.0     0.263433     0.490673     0.293099  Biso 1.000000     C
    C   1.0     0.263435     0.990679     0.293099  Biso 1.000000     C
    C   1.0     0.763422     0.490673     0.293100  Biso 1.000000     C
    C   1.0     0.763424     0.990679     0.293099  Biso 1.000000     C
    C   1.0     0.108315     0.462627     0.446426  Biso 1.000000     C
    C   1.0     0.108318     0.962632     0.446427  Biso 1.000000     C
    C   1.0     0.608304     0.462626     0.446427  Biso 1.000000     C
    C   1.0     0.608307     0.962633     0.446426  Biso 1.000000     C
    C   1.0     0.318632     0.274114     0.320328  Biso 1.000000     C
    C   1.0     0.318634     0.774120     0.320328  Biso 1.000000     C
    C   1.0     0.818620     0.274113     0.320328  Biso 1.000000     C
    C   1.0     0.818623     0.774120     0.320329  Biso 1.000000     C
    C   1.0     0.300516     0.378507     0.532948  Biso 1.000000     C
    C   1.0     0.300519     0.878513     0.532948  Biso 1.000000     C
    C   1.0     0.800505     0.378507     0.532947  Biso 1.000000     C
    C   1.0     0.800507     0.878513     0.532948  Biso 1.000000     C
    C   1.0     0.113244     0.285167     0.442472  Biso 1.000000     C
    C   1.0     0.113247     0.785173     0.442472  Biso 1.000000     C
    C   1.0     0.613232     0.285167     0.442472  Biso 1.000000     C
    C   1.0     0.613235     0.785173     0.442471  Biso 1.000000     C
    C   1.0     0.080649     0.086933     0.671725  Biso 1.000000     C
    C   1.0     0.080652     0.586939     0.671724  Biso 1.000000     C
    C   1.0     0.580637     0.086934     0.671724  Biso 1.000000     C
    C   1.0     0.580640     0.586939     0.671724  Biso 1.000000     C
    C   1.0     0.486484     0.240671     0.793109  Biso 1.000000     C
    C   1.0     0.486488     0.740677     0.793109  Biso 1.000000     C
    C   1.0     0.986475     0.240671     0.793109  Biso 1.000000     C
    C   1.0     0.986476     0.740677     0.793110  Biso 1.000000     C
    C   1.0     0.141643     0.212470     0.946464  Biso 1.000000     C
    C   1.0     0.141646     0.712475     0.946465  Biso 1.000000     C
    C   1.0     0.641631     0.212470     0.946464  Biso 1.000000     C
    C   1.0     0.641634     0.712475     0.946464  Biso 1.000000     C
    C   1.0     0.431384     0.024152     0.820338  Biso 1.000000     C
    C   1.0     0.431386     0.524158     0.820339  Biso 1.000000     C
    C   1.0     0.931372     0.024153     0.820339  Biso 1.000000     C
    C   1.0     0.931375     0.524158     0.820338  Biso 1.000000     C
    C   1.0     0.449466     0.128554     0.032974  Biso 1.000000     C
    C   1.0     0.449469     0.628560     0.032974  Biso 1.000000     C
    C   1.0     0.949456     0.128554     0.032976  Biso 1.000000     C
    C   1.0     0.949458     0.628560     0.032975  Biso 1.000000     C
    C   1.0     0.136803     0.035097     0.942429  Biso 1.000000     C
    C   1.0     0.136806     0.535103     0.942429  Biso 1.000000     C
    C   1.0     0.636791     0.035097     0.942429  Biso 1.000000     C
    C   1.0     0.636794     0.535103     0.942429  Biso 1.000000     C
    C   1.0     0.330585     0.163062     0.828273  Biso 1.000000     C
    C   1.0     0.330587     0.663068     0.828273  Biso 1.000000     C
    C   1.0     0.830573     0.163062     0.828273  Biso 1.000000     C
    C   1.0     0.830576     0.663068     0.828273  Biso 1.000000     C
    C   1.0     0.236556     0.009335     0.706914  Biso 1.000000     C
    C   1.0     0.236557     0.509341     0.706914  Biso 1.000000     C
    C   1.0     0.736544     0.009335     0.706914  Biso 1.000000     C
    C   1.0     0.736546     0.509341     0.706914  Biso 1.000000     C
    C   1.0     0.391672     0.037384     0.553585  Biso 1.000000     C
    C   1.0     0.391675     0.537389     0.553586  Biso 1.000000     C
    C   1.0     0.891661     0.037381     0.553588  Biso 1.000000     C
    C   1.0     0.891664     0.537388     0.553587  Biso 1.000000     C
    C   1.0     0.181356     0.225895     0.679685  Biso 1.000000     C
    C   1.0     0.181359     0.725901     0.679685  Biso 1.000000     C
    C   1.0     0.681344     0.225895     0.679685  Biso 1.000000     C
    C   1.0     0.681347     0.725901     0.679685  Biso 1.000000     C
    C   1.0     0.199471     0.121501     0.467066  Biso 1.000000     C
    C   1.0     0.199475     0.621507     0.467065  Biso 1.000000     C
    C   1.0     0.699461     0.121501     0.467064  Biso 1.000000     C
    C   1.0     0.699463     0.621507     0.467065  Biso 1.000000     C
    C   1.0     0.386744     0.214842     0.557541  Biso 1.000000     C
    C   1.0     0.386747     0.714848     0.557541  Biso 1.000000     C
    C   1.0     0.886732     0.214842     0.557542  Biso 1.000000     C
    C   1.0     0.886735     0.714848     0.557542  Biso 1.000000     C
    O   1.0     0.404794     0.402095     0.246058  Biso 1.000000     O
    O   1.0     0.404797     0.902102     0.246058  Biso 1.000000     O
    O   1.0     0.904783     0.402095     0.246059  Biso 1.000000     O
    O   1.0     0.904785     0.902101     0.246059  Biso 1.000000     O
    O   1.0     0.475301     0.407701     0.364064  Biso 1.000000     O
    O   1.0     0.475304     0.907706     0.364064  Biso 1.000000     O
    O   1.0     0.975289     0.407700     0.364064  Biso 1.000000     O
    O   1.0     0.975292     0.907706     0.364064  Biso 1.000000     O
    O   1.0     0.009051     0.314998     0.214861  Biso 1.000000     O
    O   1.0     0.009054     0.815004     0.214861  Biso 1.000000     O
    O   1.0     0.509039     0.314998     0.214861  Biso 1.000000     O
    O   1.0     0.509042     0.815004     0.214861  Biso 1.000000     O
    O   1.0     0.002797     0.229691     0.137370  Biso 1.000000     O
    O   1.0     0.002801     0.729697     0.137370  Biso 1.000000     O
    O   1.0     0.502786     0.229691     0.137370  Biso 1.000000     O
    O   1.0     0.502788     0.729697     0.137370  Biso 1.000000     O
    O   1.0     0.375464     0.325669     0.113529  Biso 1.000000     O
    O   1.0     0.375467     0.825676     0.113530  Biso 1.000000     O
    O   1.0     0.875452     0.325670     0.113530  Biso 1.000000     O
    O   1.0     0.875455     0.825675     0.113530  Biso 1.000000     O
    O   1.0     0.396221     0.258595     0.003424  Biso 1.000000     O
    O   1.0     0.396224     0.758605     0.003422  Biso 1.000000     O
    O   1.0     0.896210     0.258599     0.003422  Biso 1.000000     O
    O   1.0     0.896212     0.758602     0.003424  Biso 1.000000     O
    O   1.0     0.044251     0.425011     0.191476  Biso 1.000000     O
    O   1.0     0.044254     0.925017     0.191476  Biso 1.000000     O
    O   1.0     0.544239     0.425011     0.191475  Biso 1.000000     O
    O   1.0     0.544242     0.925017     0.191476  Biso 1.000000     O
    O   1.0     0.055548     0.009811     0.117781  Biso 1.000000     O
    O   1.0     0.055551     0.509817     0.117781  Biso 1.000000     O
    O   1.0     0.555537     0.009811     0.117781  Biso 1.000000     O
    O   1.0     0.555540     0.509817     0.117781  Biso 1.000000     O
    O   1.0     0.013829     0.343084     0.022032  Biso 1.000000     O
    O   1.0     0.013832     0.843089     0.022032  Biso 1.000000     O
    O   1.0     0.513817     0.343084     0.022030  Biso 1.000000     O
    O   1.0     0.513820     0.843090     0.022031  Biso 1.000000     O
    O   1.0     0.055169     0.425308     0.961418  Biso 1.000000     O
    O   1.0     0.055171     0.925313     0.961418  Biso 1.000000     O
    O   1.0     0.555157     0.425308     0.961418  Biso 1.000000     O
    O   1.0     0.555160     0.925314     0.961418  Biso 1.000000     O
    O   1.0     0.423844     0.448030     0.063234  Biso 1.000000     O
    O   1.0     0.423846     0.948036     0.063235  Biso 1.000000     O
    O   1.0     0.923832     0.448030     0.063235  Biso 1.000000     O
    O   1.0     0.923835     0.948036     0.063235  Biso 1.000000     O
    O   1.0     0.314200     0.444637     0.097986  Biso 1.000000     O
    O   1.0     0.314203     0.944643     0.097986  Biso 1.000000     O
    O   1.0     0.814189     0.444637     0.097986  Biso 1.000000     O
    O   1.0     0.814191     0.944643     0.097986  Biso 1.000000     O
    O   1.0     0.154847     0.347920     0.253978  Biso 1.000000     O
    O   1.0     0.154850     0.847926     0.253978  Biso 1.000000     O
    O   1.0     0.654835     0.347921     0.253977  Biso 1.000000     O
    O   1.0     0.654838     0.847927     0.253978  Biso 1.000000     O
    O   1.0     0.225346     0.342339     0.135943  Biso 1.000000     O
    O   1.0     0.225349     0.842345     0.135943  Biso 1.000000     O
    O   1.0     0.725335     0.342339     0.135942  Biso 1.000000     O
    O   1.0     0.725337     0.842345     0.135943  Biso 1.000000     O
    O   1.0     0.258928     0.435025     0.285124  Biso 1.000000     O
    O   1.0     0.258931     0.935031     0.285124  Biso 1.000000     O
    O   1.0     0.758916     0.435025     0.285124  Biso 1.000000     O
    O   1.0     0.758919     0.935031     0.285124  Biso 1.000000     O
    O   1.0     0.252813     0.020325     0.362667  Biso 1.000000     O
    O   1.0     0.252816     0.520331     0.362666  Biso 1.000000     O
    O   1.0     0.752802     0.020325     0.362666  Biso 1.000000     O
    O   1.0     0.752805     0.520331     0.362667  Biso 1.000000     O
    O   1.0     0.125429     0.424409     0.386522  Biso 1.000000     O
    O   1.0     0.125431     0.924415     0.386522  Biso 1.000000     O
    O   1.0     0.625417     0.424408     0.386522  Biso 1.000000     O
    O   1.0     0.625420     0.924415     0.386522  Biso 1.000000     O
    O   1.0     0.146183     0.491593     0.496447  Biso 1.000000     O
    O   1.0     0.146186     0.991598     0.496448  Biso 1.000000     O
    O   1.0     0.646171     0.491592     0.496448  Biso 1.000000     O
    O   1.0     0.646174     0.991599     0.496447  Biso 1.000000     O
    O   1.0     0.294273     0.324996     0.308530  Biso 1.000000     O
    O   1.0     0.294276     0.825002     0.308530  Biso 1.000000     O
    O   1.0     0.794261     0.324996     0.308530  Biso 1.000000     O
    O   1.0     0.794264     0.825002     0.308530  Biso 1.000000     O
    O   1.0     0.305558     0.240166     0.382205  Biso 1.000000     O
    O   1.0     0.305561     0.740172     0.382205  Biso 1.000000     O
    O   1.0     0.805547     0.240166     0.382205  Biso 1.000000     O
    O   1.0     0.805549     0.740172     0.382205  Biso 1.000000     O
    O   1.0     0.263825     0.406928     0.477930  Biso 1.000000     O
    O   1.0     0.263828     0.906934     0.477930  Biso 1.000000     O
    O   1.0     0.763814     0.406928     0.477929  Biso 1.000000     O
    O   1.0     0.763816     0.906934     0.477930  Biso 1.000000     O
    O   1.0     0.305136     0.324649     0.538604  Biso 1.000000     O
    O   1.0     0.305139     0.824655     0.538604  Biso 1.000000     O
    O   1.0     0.805125     0.324649     0.538604  Biso 1.000000     O
    O   1.0     0.805128     0.824655     0.538604  Biso 1.000000     O
    O   1.0     0.173873     0.302031     0.436809  Biso 1.000000     O
    O   1.0     0.173876     0.802037     0.436809  Biso 1.000000     O
    O   1.0     0.673861     0.302031     0.436809  Biso 1.000000     O
    O   1.0     0.673864     0.802037     0.436809  Biso 1.000000     O
    O   1.0     0.064235     0.305420     0.402015  Biso 1.000000     O
    O   1.0     0.064238     0.805426     0.402015  Biso 1.000000     O
    O   1.0     0.564224     0.305420     0.402015  Biso 1.000000     O
    O   1.0     0.564226     0.805426     0.402015  Biso 1.000000     O
    O   1.0     0.095193     0.097913     0.753955  Biso 1.000000     O
    O   1.0     0.095196     0.597919     0.753955  Biso 1.000000     O
    O   1.0     0.595182     0.097913     0.753955  Biso 1.000000     O
    O   1.0     0.595185     0.597919     0.753955  Biso 1.000000     O
    O   1.0     0.024687     0.092308     0.635950  Biso 1.000000     O
    O   1.0     0.024690     0.592314     0.635949  Biso 1.000000     O
    O   1.0     0.524675     0.092308     0.635949  Biso 1.000000     O
    O   1.0     0.524678     0.592314     0.635949  Biso 1.000000     O
    O   1.0     0.490937     0.185011     0.785152  Biso 1.000000     O
    O   1.0     0.490939     0.685017     0.785152  Biso 1.000000     O
    O   1.0     0.990925     0.185011     0.785152  Biso 1.000000     O
    O   1.0     0.990928     0.685017     0.785152  Biso 1.000000     O
    O   1.0     0.497190     0.270317     0.862643  Biso 1.000000     O
    O   1.0     0.497193     0.770324     0.862643  Biso 1.000000     O
    O   1.0     0.997179     0.270317     0.862643  Biso 1.000000     O
    O   1.0     0.997181     0.770324     0.862644  Biso 1.000000     O
    O   1.0     0.124524     0.174339     0.886484  Biso 1.000000     O
    O   1.0     0.124527     0.674344     0.886483  Biso 1.000000     O
    O   1.0     0.624512     0.174338     0.886483  Biso 1.000000     O
    O   1.0     0.624515     0.674344     0.886483  Biso 1.000000     O
    O   1.0     0.103767     0.241411     0.996591  Biso 1.000000     O
    O   1.0     0.103769     0.741415     0.996592  Biso 1.000000     O
    O   1.0     0.603755     0.241411     0.996590  Biso 1.000000     O
    O   1.0     0.603758     0.741416     0.996591  Biso 1.000000     O
    O   1.0     0.455737     0.074997     0.808538  Biso 1.000000     O
    O   1.0     0.455740     0.575003     0.808538  Biso 1.000000     O
    O   1.0     0.955725     0.074997     0.808538  Biso 1.000000     O
    O   1.0     0.955728     0.575003     0.808538  Biso 1.000000     O
    O   1.0     0.444439     0.490197     0.882232  Biso 1.000000     O
    O   1.0     0.444442     0.990203     0.882232  Biso 1.000000     O
    O   1.0     0.944428     0.490197     0.882232  Biso 1.000000     O
    O   1.0     0.944431     0.990203     0.882233  Biso 1.000000     O
    O   1.0     0.486159     0.156925     0.977981  Biso 1.000000     O
    O   1.0     0.486161     0.656931     0.977981  Biso 1.000000     O
    O   1.0     0.986147     0.156925     0.977983  Biso 1.000000     O
    O   1.0     0.986150     0.656931     0.977982  Biso 1.000000     O
    O   1.0     0.444819     0.074701     0.038595  Biso 1.000000     O
    O   1.0     0.444822     0.574707     0.038595  Biso 1.000000     O
    O   1.0     0.944808     0.074701     0.038596  Biso 1.000000     O
    O   1.0     0.944811     0.574707     0.038595  Biso 1.000000     O
    O   1.0     0.076144     0.051978     0.936779  Biso 1.000000     O
    O   1.0     0.076147     0.551984     0.936779  Biso 1.000000     O
    O   1.0     0.576132     0.051978     0.936778  Biso 1.000000     O
    O   1.0     0.576135     0.551984     0.936779  Biso 1.000000     O
    O   1.0     0.185788     0.055371     0.902027  Biso 1.000000     O
    O   1.0     0.185791     0.555377     0.902027  Biso 1.000000     O
    O   1.0     0.685776     0.055371     0.902027  Biso 1.000000     O
    O   1.0     0.685779     0.555377     0.902027  Biso 1.000000     O
    O   1.0     0.345141     0.152088     0.746036  Biso 1.000000     O
    O   1.0     0.345144     0.652094     0.746035  Biso 1.000000     O
    O   1.0     0.845129     0.152088     0.746035  Biso 1.000000     O
    O   1.0     0.845132     0.652094     0.746035  Biso 1.000000     O
    O   1.0     0.274641     0.157669     0.864071  Biso 1.000000     O
    O   1.0     0.274644     0.657676     0.864071  Biso 1.000000     O
    O   1.0     0.774630     0.157670     0.864070  Biso 1.000000     O
    O   1.0     0.774633     0.657675     0.864071  Biso 1.000000     O
    O   1.0     0.241060     0.064984     0.714889  Biso 1.000000     O
    O   1.0     0.241063     0.564990     0.714889  Biso 1.000000     O
    O   1.0     0.741048     0.064984     0.714889  Biso 1.000000     O
    O   1.0     0.741051     0.564990     0.714889  Biso 1.000000     O
    O   1.0     0.247174     0.479683     0.637347  Biso 1.000000     O
    O   1.0     0.247178     0.979689     0.637347  Biso 1.000000     O
    O   1.0     0.747163     0.479683     0.637347  Biso 1.000000     O
    O   1.0     0.747166     0.979689     0.637347  Biso 1.000000     O
    O   1.0     0.374559     0.075600     0.613491  Biso 1.000000     O
    O   1.0     0.374562     0.575606     0.613491  Biso 1.000000     O
    O   1.0     0.874548     0.075599     0.613491  Biso 1.000000     O
    O   1.0     0.874550     0.575606     0.613491  Biso 1.000000     O
    O   1.0     0.353805     0.008417     0.503564  Biso 1.000000     O
    O   1.0     0.353808     0.508422     0.503565  Biso 1.000000     O
    O   1.0     0.853793     0.008415     0.503566  Biso 1.000000     O
    O   1.0     0.853796     0.508422     0.503566  Biso 1.000000     O
    O   1.0     0.205715     0.175013     0.691483  Biso 1.000000     O
    O   1.0     0.205718     0.675019     0.691483  Biso 1.000000     O
    O   1.0     0.705703     0.175013     0.691483  Biso 1.000000     O
    O   1.0     0.705706     0.675019     0.691483  Biso 1.000000     O
    O   1.0     0.194430     0.259842     0.617808  Biso 1.000000     O
    O   1.0     0.194432     0.759848     0.617808  Biso 1.000000     O
    O   1.0     0.694418     0.259842     0.617808  Biso 1.000000     O
    O   1.0     0.694421     0.759848     0.617808  Biso 1.000000     O
    O   1.0     0.236162     0.093081     0.522084  Biso 1.000000     O
    O   1.0     0.236166     0.593087     0.522083  Biso 1.000000     O
    O   1.0     0.736151     0.093081     0.522082  Biso 1.000000     O
    O   1.0     0.736154     0.593087     0.522083  Biso 1.000000     O
    O   1.0     0.194851     0.175360     0.461409  Biso 1.000000     O
    O   1.0     0.194854     0.675366     0.461409  Biso 1.000000     O
    O   1.0     0.694840     0.175360     0.461409  Biso 1.000000     O
    O   1.0     0.694842     0.675366     0.461409  Biso 1.000000     O
    O   1.0     0.326115     0.197977     0.563204  Biso 1.000000     O
    O   1.0     0.326118     0.697983     0.563204  Biso 1.000000     O
    O   1.0     0.826104     0.197977     0.563204  Biso 1.000000     O
    O   1.0     0.826106     0.697983     0.563204  Biso 1.000000     O
    O   1.0     0.435752     0.194588     0.597998  Biso 1.000000     O
    O   1.0     0.435755     0.694594     0.597998  Biso 1.000000     O
    O   1.0     0.935741     0.194588     0.597999  Biso 1.000000     O
    O   1.0     0.935744     0.694594     0.597999  Biso 1.000000     O
   Zn   1.0     0.463919     0.377587     0.131667  Biso 1.000000    Zn
   Zn   1.0     0.463921     0.877593     0.131667  Biso 1.000000    Zn
   Zn   1.0     0.963907     0.377587     0.131668  Biso 1.000000    Zn
   Zn   1.0     0.963910     0.877593     0.131668  Biso 1.000000    Zn
   Zn   1.0     0.058604     0.370197     0.308758  Biso 1.000000    Zn
   Zn   1.0     0.058606     0.870203     0.308758  Biso 1.000000    Zn
   Zn   1.0     0.558592     0.370197     0.308758  Biso 1.000000    Zn
   Zn   1.0     0.558595     0.870203     0.308758  Biso 1.000000    Zn
   Zn   1.0     0.213917     0.372441     0.368365  Biso 1.000000    Zn
   Zn   1.0     0.213920     0.872447     0.368366  Biso 1.000000    Zn
   Zn   1.0     0.713905     0.372441     0.368365  Biso 1.000000    Zn
   Zn   1.0     0.713908     0.872447     0.368365  Biso 1.000000    Zn
   Zn   1.0     0.308584     0.379832     0.191249  Biso 1.000000    Zn
   Zn   1.0     0.308587     0.879839     0.191249  Biso 1.000000    Zn
   Zn   1.0     0.808573     0.379832     0.191249  Biso 1.000000    Zn
   Zn   1.0     0.808575     0.879838     0.191249  Biso 1.000000    Zn
   Zn   1.0     0.036069     0.122421     0.868346  Biso 1.000000    Zn
   Zn   1.0     0.036072     0.622427     0.868345  Biso 1.000000    Zn
   Zn   1.0     0.536058     0.122421     0.868345  Biso 1.000000    Zn
   Zn   1.0     0.536060     0.622427     0.868345  Biso 1.000000    Zn
   Zn   1.0     0.441384     0.129811     0.691255  Biso 1.000000    Zn
   Zn   1.0     0.441387     0.629817     0.691255  Biso 1.000000    Zn
   Zn   1.0     0.941373     0.129811     0.691255  Biso 1.000000    Zn
   Zn   1.0     0.941375     0.629817     0.691255  Biso 1.000000    Zn
   Zn   1.0     0.286071     0.127567     0.631648  Biso 1.000000    Zn
   Zn   1.0     0.286074     0.627573     0.631648  Biso 1.000000    Zn
   Zn   1.0     0.786059     0.127567     0.631647  Biso 1.000000    Zn
   Zn   1.0     0.786062     0.627573     0.631648  Biso 1.000000    Zn
   Zn   1.0     0.191404     0.120176     0.808765  Biso 1.000000    Zn
   Zn   1.0     0.191406     0.620182     0.808765  Biso 1.000000    Zn
   Zn   1.0     0.691392     0.120176     0.808765  Biso 1.000000    Zn
   Zn   1.0     0.691395     0.620182     0.808764  Biso 1.000000    Zn
   Zn   1.0     0.000001     0.250003     0.000000  Biso 1.000000    Zn
   Zn   1.0     0.000004     0.750009     0.000000  Biso 1.000000    Zn
   Zn   1.0     0.499990     0.250003    -0.000000  Biso 1.000000    Zn
   Zn   1.0     0.499992     0.750009    -0.000000  Biso 1.000000    Zn
   Zn   1.0     0.249993     0.000001     0.500007  Biso 1.000000    Zn
   Zn   1.0     0.249995     0.500007     0.500007  Biso 1.000000    Zn
   Zn   1.0     0.749981     0.000001     0.500007  Biso 1.000000    Zn
   Zn   1.0     0.749984     0.500007     0.500007  Biso 1.000000    Zn
   Zn   1.0     0.000000    -0.000000    -0.000000  Biso 1.000000    Zn
   Zn   1.0     0.999979     0.500006    -0.000000  Biso 1.000000    Zn
   Zn   1.0     0.499988     0.000000    -0.000000  Biso 1.000000    Zn
   Zn   1.0     0.499991     0.500006    -0.000000  Biso 1.000000    Zn
   Zn   1.0     0.249994     0.250004     0.500007  Biso 1.000000    Zn
   Zn   1.0     0.249997     0.750010     0.500007  Biso 1.000000    Zn
   Zn   1.0     0.749982     0.250004     0.500007  Biso 1.000000    Zn
   Zn   1.0     0.749985     0.750010     0.500007  Biso 1.000000    Zn
