#======================================================================

# CRYSTAL DATA

#----------------------------------------------------------------------

data_VESTA_phase_1


_pd_phase_name                         MOF
_cell_length_a                         20.19600
_cell_length_b                         23.10100
_cell_length_c                         14.88000
_cell_angle_alpha                      91.16100
_cell_angle_beta                       90.00000
_cell_angle_gamma                      89.95800
_symmetry_space_group_name_H-M         "P 1"
_symmetry_Int_Tables_number            1

loop_
_symmetry_equiv_pos_as_xyz
   "x, y, z"

loop_
   _atom_site_label
   _atom_site_occupancy
   _atom_site_fract_x
   _atom_site_fract_y
   _atom_site_fract_z
   _atom_site_adp_type
   _atom_site_B_iso_or_equiv
   _atom_site_type_symbol
    H   1.0     0.378729     0.428818     0.371586  Biso 1.000000     H
    H   1.0     0.378733     0.928814     0.371586  Biso 1.000000     H
    H   1.0     0.878733     0.428818     0.371586  Biso 1.000000     H
    H   1.0     0.878737     0.928814     0.371586  Biso 1.000000     H
    H   1.0     0.025155     0.237134     0.269982  Biso 1.000000     H
    H   1.0     0.025159     0.737130     0.269982  Biso 1.000000     H
    H   1.0     0.525158     0.237134     0.269982  Biso 1.000000     H
    H   1.0     0.525162     0.737130     0.269982  Biso 1.000000     H
    H   1.0     0.304644     0.281081     0.044461  Biso 1.000000     H
    H   1.0     0.304649     0.781077     0.044461  Biso 1.000000     H
    H   1.0     0.804648     0.281080     0.044461  Biso 1.000000     H
    H   1.0     0.804652     0.781077     0.044461  Biso 1.000000     H
    H   1.0     0.104491     0.490232     0.231666  Biso 1.000000     H
    H   1.0     0.104495     0.990228     0.231666  Biso 1.000000     H
    H   1.0     0.604494     0.490232     0.231666  Biso 1.000000     H
    H   1.0     0.604499     0.990228     0.231666  Biso 1.000000     H
    H   1.0     0.081563     0.344658     0.920011  Biso 1.000000     H
    H   1.0     0.081567     0.844655     0.920011  Biso 1.000000     H
    H   1.0     0.581567     0.344658     0.920011  Biso 1.000000     H
    H   1.0     0.581571     0.844655     0.920011  Biso 1.000000     H
    H   1.0     0.354201     0.501651     0.012688  Biso 1.000000     H
    H   1.0     0.354206     0.000000     0.012688  Biso 1.000000     H
    H   1.0     0.854205     0.501651     0.012688  Biso 1.000000     H
    H   1.0     0.854209     0.000000     0.012688  Biso 1.000000     H
    H   1.0     0.128800     0.321183     0.128425  Biso 1.000000     H
    H   1.0     0.128804     0.821180     0.128425  Biso 1.000000     H
    H   1.0     0.628804     0.321183     0.128425  Biso 1.000000     H
    H   1.0     0.628808     0.821180     0.128425  Biso 1.000000     H
    H   1.0     0.275013     0.012892     0.230019  Biso 1.000000     H
    H   1.0     0.275017     0.512888     0.230019  Biso 1.000000     H
    H   1.0     0.775016     0.012892     0.230019  Biso 1.000000     H
    H   1.0     0.775021     0.512888     0.230019  Biso 1.000000     H
    H   1.0     0.054627     0.469247     0.455202  Biso 1.000000     H
    H   1.0     0.054632     0.969244     0.455202  Biso 1.000000     H
    H   1.0     0.554631     0.469247     0.455202  Biso 1.000000     H
    H   1.0     0.554635     0.969244     0.455202  Biso 1.000000     H
    H   1.0     0.354503     0.259690     0.268278  Biso 1.000000     H
    H   1.0     0.354507     0.759686     0.268277  Biso 1.000000     H
    H   1.0     0.854507     0.259690     0.268277  Biso 1.000000     H
    H   1.0     0.854511     0.759686     0.268277  Biso 1.000000     H
    H   1.0     0.331653     0.405246     0.579816  Biso 1.000000     H
    H   1.0     0.331657     0.905243     0.579817  Biso 1.000000     H
    H   1.0     0.831657     0.405246     0.579817  Biso 1.000000     H
    H   1.0     0.831661     0.905243     0.579817  Biso 1.000000     H
    H   1.0     0.104250     0.248552     0.487586  Biso 1.000000     H
    H   1.0     0.104254     0.748549     0.487586  Biso 1.000000     H
    H   1.0     0.604254     0.248552     0.487586  Biso 1.000000     H
    H   1.0     0.604258     0.748549     0.487586  Biso 1.000000     H
    H   1.0     0.121279     0.071174     0.628395  Biso 1.000000     H
    H   1.0     0.121284     0.571171     0.628396  Biso 1.000000     H
    H   1.0     0.621283     0.071174     0.628396  Biso 1.000000     H
    H   1.0     0.621287     0.571171     0.628396  Biso 1.000000     H
    H   1.0     0.474854     0.262859     0.729999  Biso 1.000000     H
    H   1.0     0.474858     0.762855     0.729999  Biso 1.000000     H
    H   1.0     0.974856     0.262859     0.729999  Biso 1.000000     H
    H   1.0     0.974861     0.762855     0.729999  Biso 1.000000     H
    H   1.0     0.195364     0.218913     0.955519  Biso 1.000000     H
    H   1.0     0.195368     0.718909     0.955520  Biso 1.000000     H
    H   1.0     0.695368     0.218912     0.955520  Biso 1.000000     H
    H   1.0     0.695372     0.718909     0.955520  Biso 1.000000     H
    H   1.0     0.395516     0.009761     0.768316  Biso 1.000000     H
    H   1.0     0.395521     0.509757     0.768316  Biso 1.000000     H
    H   1.0     0.895521     0.009761     0.768315  Biso 1.000000     H
    H   1.0     0.895525     0.509757     0.768315  Biso 1.000000     H
    H   1.0     0.418445     0.155334     0.079970  Biso 1.000000     H
    H   1.0     0.418449     0.655331     0.079970  Biso 1.000000     H
    H   1.0     0.918448     0.155334     0.079970  Biso 1.000000     H
    H   1.0     0.918453     0.655331     0.079970  Biso 1.000000     H
    H   1.0     0.145807    -0.001659     0.987293  Biso 1.000000     H
    H   1.0     0.145811     0.498337     0.987293  Biso 1.000000     H
    H   1.0     0.645810    -0.001659     0.987293  Biso 1.000000     H
    H   1.0     0.645815     0.498337     0.987293  Biso 1.000000     H
    H   1.0     0.371208     0.178809     0.871556  Biso 1.000000     H
    H   1.0     0.371212     0.678806     0.871556  Biso 1.000000     H
    H   1.0     0.871212     0.178809     0.871556  Biso 1.000000     H
    H   1.0     0.871216     0.678806     0.871556  Biso 1.000000     H
    H   1.0     0.224995     0.487101     0.769962  Biso 1.000000     H
    H   1.0     0.224999     0.987097     0.769962  Biso 1.000000     H
    H   1.0     0.724998     0.487101     0.769962  Biso 1.000000     H
    H   1.0     0.725003     0.987097     0.769962  Biso 1.000000     H
    H   1.0     0.445381     0.030745     0.544778  Biso 1.000000     H
    H   1.0     0.445385     0.530742     0.544778  Biso 1.000000     H
    H   1.0     0.945385     0.030746     0.544778  Biso 1.000000     H
    H   1.0     0.945389     0.530741     0.544779  Biso 1.000000     H
    H   1.0     0.145504     0.240302     0.731703  Biso 1.000000     H
    H   1.0     0.145509     0.740298     0.731703  Biso 1.000000     H
    H   1.0     0.645508     0.240302     0.731703  Biso 1.000000     H
    H   1.0     0.645512     0.740298     0.731703  Biso 1.000000     H
    H   1.0     0.168355     0.094746     0.420164  Biso 1.000000     H
    H   1.0     0.168360     0.594742     0.420165  Biso 1.000000     H
    H   1.0     0.668359     0.094746     0.420165  Biso 1.000000     H
    H   1.0     0.668364     0.594742     0.420164  Biso 1.000000     H
    H   1.0     0.395758     0.251440     0.512395  Biso 1.000000     H
    H   1.0     0.395763     0.751436     0.512395  Biso 1.000000     H
    H   1.0     0.895762     0.251440     0.512395  Biso 1.000000     H
    H   1.0     0.895766     0.751436     0.512395  Biso 1.000000     H
    C   1.0     0.419391     0.412698     0.328311  Biso 1.000000     C
    C   1.0     0.419395     0.912695     0.328311  Biso 1.000000     C
    C   1.0     0.919395     0.412698     0.328311  Biso 1.000000     C
    C   1.0     0.919399     0.912695     0.328311  Biso 1.000000     C
    C   1.0     0.011744     0.259702     0.207725  Biso 1.000000     C
    C   1.0     0.011748     0.759698     0.207725  Biso 1.000000     C
    C   1.0     0.511747     0.259702     0.207725  Biso 1.000000     C
    C   1.0     0.511752     0.759698     0.207725  Biso 1.000000     C
    C   1.0     0.358528     0.288388     0.051277  Biso 1.000000     C
    C   1.0     0.358532     0.788384     0.051277  Biso 1.000000     C
    C   1.0     0.858532     0.288388     0.051277  Biso 1.000000     C
    C   1.0     0.858536     0.788384     0.051277  Biso 1.000000     C
    C   1.0     0.068233     0.475727     0.180150  Biso 1.000000     C
    C   1.0     0.068237     0.975723     0.180150  Biso 1.000000     C
    C   1.0     0.568236     0.475727     0.180150  Biso 1.000000     C
    C   1.0     0.568241     0.975723     0.180150  Biso 1.000000     C
    C   1.0     0.050923     0.371605     0.965751  Biso 1.000000     C
    C   1.0     0.050928     0.871601     0.965751  Biso 1.000000     C
    C   1.0     0.550927     0.371605     0.965751  Biso 1.000000     C
    C   1.0     0.550931     0.871601     0.965751  Biso 1.000000     C
    C   1.0     0.363147     0.465103     0.057583  Biso 1.000000     C
    C   1.0     0.363151     0.965099     0.057583  Biso 1.000000     C
    C   1.0     0.863150     0.465103     0.057583  Biso 1.000000     C
    C   1.0     0.863155     0.965099     0.057583  Biso 1.000000     C
    C   1.0     0.169439     0.337330     0.171670  Biso 1.000000     C
    C   1.0     0.169444     0.837326     0.171670  Biso 1.000000     C
    C   1.0     0.669443     0.337330     0.171670  Biso 1.000000     C
    C   1.0     0.669448     0.837326     0.171670  Biso 1.000000     C
    C   1.0     0.261674     0.490312     0.292279  Biso 1.000000     C
    C   1.0     0.261679     0.990308     0.292279  Biso 1.000000     C
    C   1.0     0.761678     0.490312     0.292279  Biso 1.000000     C
    C   1.0     0.761682     0.990308     0.292279  Biso 1.000000     C
    C   1.0     0.108504     0.461763     0.448553  Biso 1.000000     C
    C   1.0     0.108508     0.961760     0.448552  Biso 1.000000     C
    C   1.0     0.608508     0.461763     0.448553  Biso 1.000000     C
    C   1.0     0.608512     0.961760     0.448553  Biso 1.000000     C
    C   1.0     0.318241     0.274237     0.319794  Biso 1.000000     C
    C   1.0     0.318245     0.774233     0.319794  Biso 1.000000     C
    C   1.0     0.818244     0.274237     0.319794  Biso 1.000000     C
    C   1.0     0.818248     0.774233     0.319794  Biso 1.000000     C
    C   1.0     0.300953     0.378334     0.534162  Biso 1.000000     C
    C   1.0     0.300958     0.878330     0.534162  Biso 1.000000     C
    C   1.0     0.800957     0.378334     0.534162  Biso 1.000000     C
    C   1.0     0.800961     0.878330     0.534162  Biso 1.000000     C
    C   1.0     0.113178     0.284994     0.442503  Biso 1.000000     C
    C   1.0     0.113182     0.784990     0.442503  Biso 1.000000     C
    C   1.0     0.613181     0.284994     0.442503  Biso 1.000000     C
    C   1.0     0.613186     0.784990     0.442503  Biso 1.000000     C
    C   1.0     0.080617     0.087294     0.671670  Biso 1.000000     C
    C   1.0     0.080622     0.587290     0.671670  Biso 1.000000     C
    C   1.0     0.580621     0.087294     0.671670  Biso 1.000000     C
    C   1.0     0.580625     0.587290     0.671670  Biso 1.000000     C
    C   1.0     0.488265     0.240291     0.792256  Biso 1.000000     C
    C   1.0     0.488269     0.740287     0.792256  Biso 1.000000     C
    C   1.0     0.988268     0.240291     0.792256  Biso 1.000000     C
    C   1.0     0.988272     0.740287     0.792257  Biso 1.000000     C
    C   1.0     0.141480     0.211605     0.948704  Biso 1.000000     C
    C   1.0     0.141485     0.711601     0.948704  Biso 1.000000     C
    C   1.0     0.641484     0.211604     0.948704  Biso 1.000000     C
    C   1.0     0.641488     0.711601     0.948704  Biso 1.000000     C
    C   1.0     0.431775     0.024266     0.819832  Biso 1.000000     C
    C   1.0     0.431780     0.524262     0.819832  Biso 1.000000     C
    C   1.0     0.931779     0.024265     0.819831  Biso 1.000000     C
    C   1.0     0.931783     0.524262     0.819831  Biso 1.000000     C
    C   1.0     0.449085     0.128388     0.034230  Biso 1.000000     C
    C   1.0     0.449089     0.628384     0.034230  Biso 1.000000     C
    C   1.0     0.949088     0.128388     0.034230  Biso 1.000000     C
    C   1.0     0.949093     0.628384     0.034230  Biso 1.000000     C
    C   1.0     0.136862     0.034889     0.942399  Biso 1.000000     C
    C   1.0     0.136866     0.534886     0.942399  Biso 1.000000     C
    C   1.0     0.636865     0.034889     0.942399  Biso 1.000000     C
    C   1.0     0.636870     0.534886     0.942399  Biso 1.000000     C
    C   1.0     0.330569     0.162663     0.828311  Biso 1.000000     C
    C   1.0     0.330573     0.662659     0.828311  Biso 1.000000     C
    C   1.0     0.830572     0.162663     0.828311  Biso 1.000000     C
    C   1.0     0.830577     0.662659     0.828311  Biso 1.000000     C
    C   1.0     0.238334     0.009681     0.707702  Biso 1.000000     C
    C   1.0     0.238338     0.509677     0.707702  Biso 1.000000     C
    C   1.0     0.738338     0.009681     0.707702  Biso 1.000000     C
    C   1.0     0.738342     0.509677     0.707702  Biso 1.000000     C
    C   1.0     0.391504     0.038229     0.551428  Biso 1.000000     C
    C   1.0     0.391509     0.538226     0.551428  Biso 1.000000     C
    C   1.0     0.891508     0.038229     0.551428  Biso 1.000000     C
    C   1.0     0.891512     0.538225     0.551429  Biso 1.000000     C
    C   1.0     0.181767     0.225756     0.680187  Biso 1.000000     C
    C   1.0     0.181772     0.725752     0.680187  Biso 1.000000     C
    C   1.0     0.681771     0.225756     0.680187  Biso 1.000000     C
    C   1.0     0.681775     0.725752     0.680187  Biso 1.000000     C
    C   1.0     0.199055     0.121659     0.465820  Biso 1.000000     C
    C   1.0     0.199059     0.621655     0.465820  Biso 1.000000     C
    C   1.0     0.699058     0.121659     0.465820  Biso 1.000000     C
    C   1.0     0.699063     0.621655     0.465819  Biso 1.000000     C
    C   1.0     0.386831     0.214999     0.557478  Biso 1.000000     C
    C   1.0     0.386835     0.714995     0.557478  Biso 1.000000     C
    C   1.0     0.886834     0.214999     0.557478  Biso 1.000000     C
    C   1.0     0.886839     0.714995     0.557478  Biso 1.000000     C
    O   1.0     0.404939     0.401324     0.245859  Biso 1.000000     O
    O   1.0     0.404943     0.901320     0.245859  Biso 1.000000     O
    O   1.0     0.904942     0.401323     0.245859  Biso 1.000000     O
    O   1.0     0.904947     0.901320     0.245859  Biso 1.000000     O
    O   1.0     0.475417     0.407650     0.364373  Biso 1.000000     O
    O   1.0     0.475422     0.907646     0.364373  Biso 1.000000     O
    O   1.0     0.975421     0.407650     0.364373  Biso 1.000000     O
    O   1.0     0.975425     0.907646     0.364373  Biso 1.000000     O
    O   1.0     0.009221     0.315298     0.214416  Biso 1.000000     O
    O   1.0     0.009225     0.815294     0.214416  Biso 1.000000     O
    O   1.0     0.509224     0.315298     0.214416  Biso 1.000000     O
    O   1.0     0.509229     0.815294     0.214416  Biso 1.000000     O
    O   1.0     0.000237     0.229888     0.138400  Biso 1.000000     O
    O   1.0     0.000242     0.729884     0.138400  Biso 1.000000     O
    O   1.0     0.500241     0.229888     0.138400  Biso 1.000000     O
    O   1.0     0.500245     0.729884     0.138400  Biso 1.000000     O
    O   1.0     0.375623     0.325814     0.112400  Biso 1.000000     O
    O   1.0     0.375627     0.825810     0.112400  Biso 1.000000     O
    O   1.0     0.875626     0.325814     0.112400  Biso 1.000000     O
    O   1.0     0.875631     0.825810     0.112400  Biso 1.000000     O
    O   1.0     0.396468     0.259932     0.000446  Biso 1.000000     O
    O   1.0     0.396472     0.759928     0.000446  Biso 1.000000     O
    O   1.0     0.896471     0.259932     0.000446  Biso 1.000000     O
    O   1.0     0.896476     0.759928     0.000446  Biso 1.000000     O
    O   1.0     0.044066     0.424914     0.191173  Biso 1.000000     O
    O   1.0     0.044071     0.924911     0.191173  Biso 1.000000     O
    O   1.0     0.544070     0.424914     0.191173  Biso 1.000000     O
    O   1.0     0.544074     0.924911     0.191173  Biso 1.000000     O
    O   1.0     0.055440     0.009793     0.118119  Biso 1.000000     O
    O   1.0     0.055444     0.509790     0.118119  Biso 1.000000     O
    O   1.0     0.555443     0.009793     0.118119  Biso 1.000000     O
    O   1.0     0.555448     0.509790     0.118119  Biso 1.000000     O
    O   1.0     0.013982     0.342946     0.020283  Biso 1.000000     O
    O   1.0     0.013986     0.842942     0.020283  Biso 1.000000     O
    O   1.0     0.513986     0.342946     0.020283  Biso 1.000000     O
    O   1.0     0.513990     0.842942     0.020283  Biso 1.000000     O
    O   1.0     0.055404     0.425329     0.961110  Biso 1.000000     O
    O   1.0     0.055409     0.925326     0.961110  Biso 1.000000     O
    O   1.0     0.555408     0.425329     0.961110  Biso 1.000000     O
    O   1.0     0.555412     0.925326     0.961110  Biso 1.000000     O
    O   1.0     0.423848     0.448173     0.062953  Biso 1.000000     O
    O   1.0     0.423852     0.948169     0.062953  Biso 1.000000     O
    O   1.0     0.923851     0.448173     0.062953  Biso 1.000000     O
    O   1.0     0.923856     0.948169     0.062953  Biso 1.000000     O
    O   1.0     0.314143     0.444633     0.097821  Biso 1.000000     O
    O   1.0     0.314147     0.944629     0.097821  Biso 1.000000     O
    O   1.0     0.814146     0.444633     0.097821  Biso 1.000000     O
    O   1.0     0.814151     0.944629     0.097821  Biso 1.000000     O
    O   1.0     0.154972     0.348790     0.254097  Biso 1.000000     O
    O   1.0     0.154976     0.848786     0.254097  Biso 1.000000     O
    O   1.0     0.654976     0.348790     0.254097  Biso 1.000000     O
    O   1.0     0.654980     0.848786     0.254097  Biso 1.000000     O
    O   1.0     0.225454     0.342366     0.135592  Biso 1.000000     O
    O   1.0     0.225458     0.842362     0.135592  Biso 1.000000     O
    O   1.0     0.725457     0.342366     0.135592  Biso 1.000000     O
    O   1.0     0.725462     0.842362     0.135592  Biso 1.000000     O
    O   1.0     0.259139     0.434723     0.285548  Biso 1.000000     O
    O   1.0     0.259144     0.934719     0.285548  Biso 1.000000     O
    O   1.0     0.759143     0.434723     0.285548  Biso 1.000000     O
    O   1.0     0.759147     0.934719     0.285548  Biso 1.000000     O
    O   1.0     0.250228     0.020122     0.361651  Biso 1.000000     O
    O   1.0     0.250233     0.520118     0.361651  Biso 1.000000     O
    O   1.0     0.750232     0.020122     0.361651  Biso 1.000000     O
    O   1.0     0.750236     0.520118     0.361651  Biso 1.000000     O
    O   1.0     0.125592     0.424252     0.387519  Biso 1.000000     O
    O   1.0     0.125596     0.924249     0.387519  Biso 1.000000     O
    O   1.0     0.625595     0.424252     0.387519  Biso 1.000000     O
    O   1.0     0.625600     0.924249     0.387519  Biso 1.000000     O
    O   1.0     0.146438     0.490115     0.499460  Biso 1.000000     O
    O   1.0     0.146442     0.990112     0.499460  Biso 1.000000     O
    O   1.0     0.646442     0.490115     0.499460  Biso 1.000000     O
    O   1.0     0.646446     0.990112     0.499460  Biso 1.000000     O
    O   1.0     0.294103     0.325095     0.308798  Biso 1.000000     O
    O   1.0     0.294107     0.825092     0.308798  Biso 1.000000     O
    O   1.0     0.794106     0.325095     0.308798  Biso 1.000000     O
    O   1.0     0.794111     0.825092     0.308798  Biso 1.000000     O
    O   1.0     0.305441     0.240188     0.381814  Biso 1.000000     O
    O   1.0     0.305445     0.740184     0.381814  Biso 1.000000     O
    O   1.0     0.805444     0.240188     0.381814  Biso 1.000000     O
    O   1.0     0.805449     0.740184     0.381814  Biso 1.000000     O
    O   1.0     0.264002     0.407041     0.479656  Biso 1.000000     O
    O   1.0     0.264007     0.907037     0.479656  Biso 1.000000     O
    O   1.0     0.764006     0.407041     0.479656  Biso 1.000000     O
    O   1.0     0.764010     0.907037     0.479656  Biso 1.000000     O
    O   1.0     0.305400     0.324605     0.538860  Biso 1.000000     O
    O   1.0     0.305405     0.824601     0.538860  Biso 1.000000     O
    O   1.0     0.805404     0.324605     0.538860  Biso 1.000000     O
    O   1.0     0.805408     0.824601     0.538860  Biso 1.000000     O
    O   1.0     0.173862     0.301881     0.437075  Biso 1.000000     O
    O   1.0     0.173867     0.801878     0.437075  Biso 1.000000     O
    O   1.0     0.673866     0.301881     0.437075  Biso 1.000000     O
    O   1.0     0.673870     0.801878     0.437075  Biso 1.000000     O
    O   1.0     0.064161     0.305428     0.402177  Biso 1.000000     O
    O   1.0     0.064165     0.805425     0.402177  Biso 1.000000     O
    O   1.0     0.564164     0.305428     0.402177  Biso 1.000000     O
    O   1.0     0.564169     0.805425     0.402177  Biso 1.000000     O
    O   1.0     0.095070     0.098669     0.754122  Biso 1.000000     O
    O   1.0     0.095074     0.598665     0.754122  Biso 1.000000     O
    O   1.0     0.595073     0.098669     0.754123  Biso 1.000000     O
    O   1.0     0.595078     0.598665     0.754122  Biso 1.000000     O
    O   1.0     0.024591     0.092343     0.635608  Biso 1.000000     O
    O   1.0     0.024595     0.592339     0.635608  Biso 1.000000     O
    O   1.0     0.524595     0.092343     0.635608  Biso 1.000000     O
    O   1.0     0.524599     0.592339     0.635608  Biso 1.000000     O
    O   1.0     0.490788     0.184694     0.785565  Biso 1.000000     O
    O   1.0     0.490792     0.684691     0.785565  Biso 1.000000     O
    O   1.0     0.990791     0.184694     0.785565  Biso 1.000000     O
    O   1.0     0.990795     0.684691     0.785565  Biso 1.000000     O
    O   1.0     0.499771     0.270104     0.861581  Biso 1.000000     O
    O   1.0     0.499775     0.770101     0.861581  Biso 1.000000     O
    O   1.0     0.999774     0.270104     0.861581  Biso 1.000000     O
    O   1.0     0.999779     0.770101     0.861581  Biso 1.000000     O
    O   1.0     0.124386     0.174179     0.887581  Biso 1.000000     O
    O   1.0     0.124390     0.674175     0.887581  Biso 1.000000     O
    O   1.0     0.624389     0.174179     0.887581  Biso 1.000000     O
    O   1.0     0.624394     0.674175     0.887581  Biso 1.000000     O
    O   1.0     0.103540     0.240061     0.999535  Biso 1.000000     O
    O   1.0     0.103545     0.740057     0.999535  Biso 1.000000     O
    O   1.0     0.603544     0.240060     0.999535  Biso 1.000000     O
    O   1.0     0.603548     0.740057     0.999535  Biso 1.000000     O
    O   1.0     0.455942     0.075078     0.808808  Biso 1.000000     O
    O   1.0     0.455946     0.575074     0.808808  Biso 1.000000     O
    O   1.0     0.955946     0.075078     0.808808  Biso 1.000000     O
    O   1.0     0.955950     0.575074     0.808808  Biso 1.000000     O
    O   1.0     0.444568     0.490199     0.881862  Biso 1.000000     O
    O   1.0     0.444573     0.990196     0.881862  Biso 1.000000     O
    O   1.0     0.944572     0.490199     0.881862  Biso 1.000000     O
    O   1.0     0.944576     0.990196     0.881862  Biso 1.000000     O
    O   1.0     0.486026     0.157046     0.979698  Biso 1.000000     O
    O   1.0     0.486031     0.657043     0.979698  Biso 1.000000     O
    O   1.0     0.986030     0.157046     0.979698  Biso 1.000000     O
    O   1.0     0.986034     0.657043     0.979698  Biso 1.000000     O
    O   1.0     0.444604     0.074663     0.038871  Biso 1.000000     O
    O   1.0     0.444608     0.574660     0.038871  Biso 1.000000     O
    O   1.0     0.944607     0.074663     0.038871  Biso 1.000000     O
    O   1.0     0.944612     0.574660     0.038871  Biso 1.000000     O
    O   1.0     0.076161     0.051819     0.937029  Biso 1.000000     O
    O   1.0     0.076165     0.551816     0.937029  Biso 1.000000     O
    O   1.0     0.576164     0.051819     0.937029  Biso 1.000000     O
    O   1.0     0.576169     0.551816     0.937029  Biso 1.000000     O
    O   1.0     0.185866     0.055360     0.902161  Biso 1.000000     O
    O   1.0     0.185870     0.555356     0.902161  Biso 1.000000     O
    O   1.0     0.685869     0.055360     0.902161  Biso 1.000000     O
    O   1.0     0.685874     0.555356     0.902161  Biso 1.000000     O
    O   1.0     0.345036     0.151203     0.745884  Biso 1.000000     O
    O   1.0     0.345041     0.651199     0.745884  Biso 1.000000     O
    O   1.0     0.845040     0.151203     0.745884  Biso 1.000000     O
    O   1.0     0.845044     0.651199     0.745884  Biso 1.000000     O
    O   1.0     0.274554     0.157627     0.864389  Biso 1.000000     O
    O   1.0     0.274559     0.657623     0.864389  Biso 1.000000     O
    O   1.0     0.774558     0.157627     0.864389  Biso 1.000000     O
    O   1.0     0.774563     0.657623     0.864389  Biso 1.000000     O
    O   1.0     0.240869     0.065270     0.714433  Biso 1.000000     O
    O   1.0     0.240873     0.565266     0.714433  Biso 1.000000     O
    O   1.0     0.740872     0.065270     0.714433  Biso 1.000000     O
    O   1.0     0.740877     0.565266     0.714433  Biso 1.000000     O
    O   1.0     0.249780     0.479871     0.638330  Biso 1.000000     O
    O   1.0     0.249784     0.979867     0.638330  Biso 1.000000     O
    O   1.0     0.749783     0.479871     0.638330  Biso 1.000000     O
    O   1.0     0.749788     0.979867     0.638330  Biso 1.000000     O
    O   1.0     0.374417     0.075740     0.612462  Biso 1.000000     O
    O   1.0     0.374421     0.575736     0.612462  Biso 1.000000     O
    O   1.0     0.874420     0.075740     0.612462  Biso 1.000000     O
    O   1.0     0.874425     0.575736     0.612462  Biso 1.000000     O
    O   1.0     0.353570     0.009877     0.500521  Biso 1.000000     O
    O   1.0     0.353575     0.509873     0.500521  Biso 1.000000     O
    O   1.0     0.853574     0.009877     0.500521  Biso 1.000000     O
    O   1.0     0.853578     0.509873     0.500521  Biso 1.000000     O
    O   1.0     0.205905     0.174897     0.691184  Biso 1.000000     O
    O   1.0     0.205910     0.674894     0.691184  Biso 1.000000     O
    O   1.0     0.705909     0.174897     0.691184  Biso 1.000000     O
    O   1.0     0.705913     0.674894     0.691184  Biso 1.000000     O
    O   1.0     0.194567     0.259804     0.618167  Biso 1.000000     O
    O   1.0     0.194572     0.759801     0.618167  Biso 1.000000     O
    O   1.0     0.694571     0.259804     0.618167  Biso 1.000000     O
    O   1.0     0.694575     0.759801     0.618167  Biso 1.000000     O
    O   1.0     0.236006     0.092952     0.520325  Biso 1.000000     O
    O   1.0     0.236010     0.592948     0.520325  Biso 1.000000     O
    O   1.0     0.736010     0.092952     0.520325  Biso 1.000000     O
    O   1.0     0.736014     0.592948     0.520325  Biso 1.000000     O
    O   1.0     0.194608     0.175387     0.461121  Biso 1.000000     O
    O   1.0     0.194612     0.675384     0.461121  Biso 1.000000     O
    O   1.0     0.694612     0.175387     0.461121  Biso 1.000000     O
    O   1.0     0.694616     0.675384     0.461121  Biso 1.000000     O
    O   1.0     0.326146     0.198111     0.562906  Biso 1.000000     O
    O   1.0     0.326150     0.698107     0.562906  Biso 1.000000     O
    O   1.0     0.826149     0.198111     0.562906  Biso 1.000000     O
    O   1.0     0.826154     0.698107     0.562906  Biso 1.000000     O
    O   1.0     0.435848     0.194564     0.597804  Biso 1.000000     O
    O   1.0     0.435852     0.694561     0.597804  Biso 1.000000     O
    O   1.0     0.935851     0.194564     0.597804  Biso 1.000000     O
    O   1.0     0.935856     0.694561     0.597804  Biso 1.000000     O
   Zn   1.0     0.463991     0.377470     0.129630  Biso 1.000000    Zn
   Zn   1.0     0.463996     0.877467     0.129630  Biso 1.000000    Zn
   Zn   1.0     0.963995     0.377470     0.129630  Biso 1.000000    Zn
   Zn   1.0     0.963999     0.877467     0.129630  Biso 1.000000    Zn
   Zn   1.0     0.058621     0.370231     0.308700  Biso 1.000000    Zn
   Zn   1.0     0.058625     0.870227     0.308700  Biso 1.000000    Zn
   Zn   1.0     0.558624     0.370231     0.308700  Biso 1.000000    Zn
   Zn   1.0     0.558629     0.870227     0.308700  Biso 1.000000    Zn
   Zn   1.0     0.213987     0.372545     0.370356  Biso 1.000000    Zn
   Zn   1.0     0.213992     0.872541     0.370356  Biso 1.000000    Zn
   Zn   1.0     0.713991     0.372545     0.370356  Biso 1.000000    Zn
   Zn   1.0     0.713995     0.872541     0.370356  Biso 1.000000    Zn
   Zn   1.0     0.308615     0.379792     0.191267  Biso 1.000000    Zn
   Zn   1.0     0.308619     0.879788     0.191267  Biso 1.000000    Zn
   Zn   1.0     0.808618     0.379792     0.191267  Biso 1.000000    Zn
   Zn   1.0     0.808623     0.879788     0.191267  Biso 1.000000    Zn
   Zn   1.0     0.036017     0.122522     0.870351  Biso 1.000000    Zn
   Zn   1.0     0.036021     0.622518     0.870351  Biso 1.000000    Zn
   Zn   1.0     0.536020     0.122522     0.870351  Biso 1.000000    Zn
   Zn   1.0     0.536025     0.622518     0.870351  Biso 1.000000    Zn
   Zn   1.0     0.441388     0.129762     0.691281  Biso 1.000000    Zn
   Zn   1.0     0.441392     0.629758     0.691281  Biso 1.000000    Zn
   Zn   1.0     0.941391     0.129762     0.691281  Biso 1.000000    Zn
   Zn   1.0     0.941396     0.629758     0.691281  Biso 1.000000    Zn
   Zn   1.0     0.286021     0.127448     0.629625  Biso 1.000000    Zn
   Zn   1.0     0.286025     0.627444     0.629625  Biso 1.000000    Zn
   Zn   1.0     0.786025     0.127448     0.629625  Biso 1.000000    Zn
   Zn   1.0     0.786029     0.627444     0.629625  Biso 1.000000    Zn
   Zn   1.0     0.191393     0.120201     0.808714  Biso 1.000000    Zn
   Zn   1.0     0.191398     0.620197     0.808714  Biso 1.000000    Zn
   Zn   1.0     0.691397     0.120201     0.808714  Biso 1.000000    Zn
   Zn   1.0     0.691402     0.620197     0.808714  Biso 1.000000    Zn
   Zn   1.0     0.000002     0.249998    -0.000000  Biso 1.000000    Zn
   Zn   1.0     0.000007     0.749995     0.000000  Biso 1.000000    Zn
   Zn   1.0     0.500006     0.249998    -0.000000  Biso 1.000000    Zn
   Zn   1.0     0.500010     0.749995    -0.000000  Biso 1.000000    Zn
   Zn   1.0     0.250002    -0.000002     0.499991  Biso 1.000000    Zn
   Zn   1.0     0.250006     0.499994     0.499991  Biso 1.000000    Zn
   Zn   1.0     0.750006    -0.000002     0.499991  Biso 1.000000    Zn
   Zn   1.0     0.750010     0.499994     0.499991  Biso 1.000000    Zn
   Zn   1.0    -0.000000     0.000000    -0.000000  Biso 1.000000    Zn
   Zn   1.0     0.000000     0.499996    -0.000000  Biso 1.000000    Zn
   Zn   1.0     0.500004     0.000000    -0.000000  Biso 1.000000    Zn
   Zn   1.0     0.500008     0.499996    -0.000000  Biso 1.000000    Zn
   Zn   1.0     0.250004     0.249996     0.499991  Biso 1.000000    Zn
   Zn   1.0     0.250009     0.749993     0.499991  Biso 1.000000    Zn
   Zn   1.0     0.750008     0.249996     0.499991  Biso 1.000000    Zn
   Zn   1.0     0.750012     0.749993     0.499991  Biso 1.000000    Zn
