#======================================================================

# CRYSTAL DATA

#----------------------------------------------------------------------

data_VESTA_phase_1


_pd_phase_name                         MOF
_cell_length_a                         13.68700
_cell_length_b                         17.85200
_cell_length_c                         21.78700
_cell_angle_alpha                      89.91000
_cell_angle_beta                       89.97700
_cell_angle_gamma                      89.99800
_symmetry_space_group_name_H-M         "P 1"
_symmetry_Int_Tables_number            1

loop_
_symmetry_equiv_pos_as_xyz
   "x, y, z"

loop_
   _atom_site_label
   _atom_site_occupancy
   _atom_site_fract_x
   _atom_site_fract_y
   _atom_site_fract_z
   _atom_site_adp_type
   _atom_site_B_iso_or_equiv
   _atom_site_type_symbol
    H   1.0     0.043377     0.928965     0.173743  Biso 1.000000     H
    H   1.0     0.976324     0.914044     0.104431  Biso 1.000000     H
    H   1.0     0.009322     0.066270     0.166843  Biso 1.000000     H
    H   1.0     0.956906     0.054201     0.093222  Biso 1.000000     H
    H   1.0     0.342694     0.060578     0.156221  Biso 1.000000     H
    H   1.0     0.401651     0.064526     0.082675  Biso 1.000000     H
    H   1.0     0.462165     0.933263     0.097208  Biso 1.000000     H
    H   1.0     0.401584     0.929691     0.170065  Biso 1.000000     H
    H   1.0     0.261923     0.968335     0.914788  Biso 1.000000     H
    H   1.0     0.130939     0.971197     0.915582  Biso 1.000000     H
    H   1.0     0.257700     0.830641     0.932151  Biso 1.000000     H
    H   1.0     0.126448     0.832352     0.925582  Biso 1.000000     H
    H   1.0     0.383933     0.644575     0.084439  Biso 1.000000     H
    H   1.0     0.327145     0.703007     0.140255  Biso 1.000000     H
    H   1.0     0.439009     0.758053     0.025655  Biso 1.000000     H
    H   1.0     0.380069     0.816823     0.079013  Biso 1.000000     H
    H   1.0     0.954066     0.777204     0.036202  Biso 1.000000     H
    H   1.0     0.019901     0.800793     0.103977  Biso 1.000000     H
    H   1.0     0.982229     0.673866     0.149029  Biso 1.000000     H
    H   1.0     0.916864     0.650089     0.081799  Biso 1.000000     H
    H   1.0     0.098747     0.583338     0.909925  Biso 1.000000     H
    H   1.0     0.228689     0.581381     0.908275  Biso 1.000000     H
    H   1.0     0.103222     0.708237     0.854046  Biso 1.000000     H
    H   1.0     0.231808     0.706159     0.855688  Biso 1.000000     H
    H   1.0     0.956730     0.074892     0.671691  Biso 1.000000     H
    H   1.0     0.023095     0.087174     0.601696  Biso 1.000000     H
    H   1.0     0.989527     0.937172     0.667920  Biso 1.000000     H
    H   1.0     0.041974     0.946684     0.594050  Biso 1.000000     H
    H   1.0     0.657661     0.940106     0.657090  Biso 1.000000     H
    H   1.0     0.596914     0.937098     0.584137  Biso 1.000000     H
    H   1.0     0.538086     0.068722     0.599791  Biso 1.000000     H
    H   1.0     0.599702     0.070841     0.672286  Biso 1.000000     H
    H   1.0     0.732531     0.034740     0.415213  Biso 1.000000     H
    H   1.0     0.863362     0.029386     0.414746  Biso 1.000000     H
    H   1.0     0.740781     0.172096     0.431362  Biso 1.000000     H
    H   1.0     0.872026     0.168363     0.425390  Biso 1.000000     H
    H   1.0     0.616365     0.356693     0.585615  Biso 1.000000     H
    H   1.0     0.673366     0.297603     0.641015  Biso 1.000000     H
    H   1.0     0.561846     0.243896     0.526066  Biso 1.000000     H
    H   1.0     0.620670     0.184473     0.579127  Biso 1.000000     H
    H   1.0     0.047008     0.225748     0.536438  Biso 1.000000     H
    H   1.0     0.981354     0.200803     0.604053  Biso 1.000000     H
    H   1.0     0.016740     0.327690     0.649674  Biso 1.000000     H
    H   1.0     0.082123     0.352717     0.582679  Biso 1.000000     H
    H   1.0     0.900598     0.418802     0.410270  Biso 1.000000     H
    H   1.0     0.770632     0.420419     0.408885  Biso 1.000000     H
    H   1.0     0.896330     0.294011     0.354472  Biso 1.000000     H
    H   1.0     0.767704     0.296099     0.356075  Biso 1.000000     H
    H   1.0     0.456806     0.428165     0.172828  Biso 1.000000     H
    H   1.0     0.523473     0.414527     0.103168  Biso 1.000000     H
    H   1.0     0.490266     0.565793     0.167124  Biso 1.000000     H
    H   1.0     0.542970     0.554754     0.093483  Biso 1.000000     H
    H   1.0     0.157699     0.561431     0.156664  Biso 1.000000     H
    H   1.0     0.098122     0.565295     0.083366  Biso 1.000000     H
    H   1.0     0.037550     0.434030     0.098325  Biso 1.000000     H
    H   1.0     0.098539     0.430661     0.170980  Biso 1.000000     H
    H   1.0     0.235411     0.467753     0.915061  Biso 1.000000     H
    H   1.0     0.366274     0.472694     0.915102  Biso 1.000000     H
    H   1.0     0.243324     0.330211     0.932161  Biso 1.000000     H
    H   1.0     0.374438     0.333806     0.925325  Biso 1.000000     H
    H   1.0     0.118025     0.145418     0.087222  Biso 1.000000     H
    H   1.0     0.174871     0.206636     0.140903  Biso 1.000000     H
    H   1.0     0.060260     0.255920     0.025699  Biso 1.000000     H
    H   1.0     0.118577     0.317448     0.077168  Biso 1.000000     H
    H   1.0     0.547632     0.275517     0.034289  Biso 1.000000     H
    H   1.0     0.482252     0.301823     0.101541  Biso 1.000000     H
    H   1.0     0.516830     0.175173     0.148695  Biso 1.000000     H
    H   1.0     0.582974     0.149501     0.082256  Biso 1.000000     H
    H   1.0     0.398259     0.082058     0.909719  Biso 1.000000     H
    H   1.0     0.268270     0.081842     0.908538  Biso 1.000000     H
    H   1.0     0.395923     0.207439     0.854263  Biso 1.000000     H
    H   1.0     0.267301     0.206445     0.855882  Biso 1.000000     H
    H   1.0     0.542888     0.574402     0.672054  Biso 1.000000     H
    H   1.0     0.476672     0.587631     0.602159  Biso 1.000000     H
    H   1.0     0.509806     0.436694     0.667063  Biso 1.000000     H
    H   1.0     0.457124     0.447401     0.593350  Biso 1.000000     H
    H   1.0     0.842092     0.440565     0.657140  Biso 1.000000     H
    H   1.0     0.902505     0.437009     0.584066  Biso 1.000000     H
    H   1.0     0.961298     0.568898     0.599043  Biso 1.000000     H
    H   1.0     0.900441     0.571166     0.671838  Biso 1.000000     H
    H   1.0     0.766427     0.534480     0.415040  Biso 1.000000     H
    H   1.0     0.635540     0.529880     0.414854  Biso 1.000000     H
    H   1.0     0.759437     0.671886     0.431504  Biso 1.000000     H
    H   1.0     0.628121     0.668822     0.425658  Biso 1.000000     H
    H   1.0     0.883411     0.858045     0.584773  Biso 1.000000     H
    H   1.0     0.826349     0.799645     0.640669  Biso 1.000000     H
    H   1.0     0.937820     0.744483     0.526094  Biso 1.000000     H
    H   1.0     0.879015     0.685777     0.579736  Biso 1.000000     H
    H   1.0     0.453249     0.725999     0.536039  Biso 1.000000     H
    H   1.0     0.518958     0.701209     0.603644  Biso 1.000000     H
    H   1.0     0.482915     0.827849     0.649370  Biso 1.000000     H
    H   1.0     0.417706     0.852940     0.582361  Biso 1.000000     H
    H   1.0     0.599138     0.918920     0.409495  Biso 1.000000     H
    H   1.0     0.729118     0.920744     0.408013  Biso 1.000000     H
    H   1.0     0.603661     0.794161     0.353708  Biso 1.000000     H
    H   1.0     0.732256     0.796351     0.355231  Biso 1.000000     H
    C   1.0     0.194149     0.990716     0.123814  Biso 1.000000     C
    C   1.0     0.285163     0.975718     0.026190  Biso 1.000000     C
    C   1.0     0.109146     0.945136     0.030834  Biso 1.000000     C
    C   1.0     0.000000     0.953252     0.129354  Biso 1.000000     C
    C   1.0     0.968285     0.026950     0.138118  Biso 1.000000     C
    C   1.0     0.867792     0.013489     0.165220  Biso 1.000000     C
    C   1.0     0.366535     0.027877     0.116512  Biso 1.000000     C
    C   1.0     0.437916     0.966553     0.136504  Biso 1.000000     C
    C   1.0     0.525502     0.000000     0.167655  Biso 1.000000     C
    C   1.0     0.195855     0.941764     0.932626  Biso 1.000000     C
    C   1.0     0.194616     0.859901     0.912025  Biso 1.000000     C
    C   1.0     0.205777     0.858312     0.842474  Biso 1.000000     C
    C   1.0     0.258342     0.660824     0.999280  Biso 1.000000     C
    C   1.0     0.080965     0.685851     0.991959  Biso 1.000000     C
    C   1.0     0.175064     0.733963     0.080667  Biso 1.000000     C
    C   1.0     0.348497     0.698709     0.092003  Biso 1.000000     C
    C   1.0     0.417235     0.762526     0.074112  Biso 1.000000     C
    C   1.0     0.510791     0.766286     0.112280  Biso 1.000000     C
    C   1.0    -0.002925     0.754784     0.074321  Biso 1.000000     C
    C   1.0     0.938512     0.697331     0.111337  Biso 1.000000     C
    C   1.0     0.844752     0.729290     0.138532  Biso 1.000000     C
    C   1.0     0.164814     0.617815     0.909237  Biso 1.000000     C
    C   1.0     0.166367     0.670335     0.854079  Biso 1.000000     C
    C   1.0     0.169613     0.629390     0.792999  Biso 1.000000     C
    C   1.0     0.805259     0.011189     0.623614  Biso 1.000000     C
    C   1.0     0.712391     0.025558     0.526636  Biso 1.000000     C
    C   1.0     0.888266     0.056991     0.529912  Biso 1.000000     C
    C   1.0    -0.023362     0.049017     0.627833  Biso 1.000000     C
    C   1.0     0.030800     0.975428     0.638267  Biso 1.000000     C
    C   1.0     0.131483     0.989254     0.665042  Biso 1.000000     C
    C   1.0     0.633035     0.973288     0.617769  Biso 1.000000     C
    C   1.0     0.562542     0.034685     0.638679  Biso 1.000000     C
    C   1.0     0.475053     0.000411     0.670078  Biso 1.000000     C
    C   1.0     0.799826     0.060058     0.432359  Biso 1.000000     C
    C   1.0     0.803341     0.141863     0.411595  Biso 1.000000     C
    C   1.0     0.793386     0.143683     0.341984  Biso 1.000000     C
    C   1.0     0.741773     0.341218     0.500142  Biso 1.000000     C
    C   1.0     0.918856     0.315220     0.491861  Biso 1.000000     C
    C   1.0     0.825557     0.268072     0.581423  Biso 1.000000     C
    C   1.0     0.651960     0.302533     0.592814  Biso 1.000000     C
    C   1.0     0.583492     0.238814     0.574515  Biso 1.000000     C
    C   1.0     0.489816     0.234717     0.612552  Biso 1.000000     C
    C   1.0     0.000000     0.247339     0.574638  Biso 1.000000     C
    C   1.0     0.061045     0.304975     0.611973  Biso 1.000000     C
    C   1.0     0.155136     0.273626     0.639225  Biso 1.000000     C
    C   1.0     0.834678     0.384151     0.409725  Biso 1.000000     C
    C   1.0     0.833176     0.331904     0.354550  Biso 1.000000     C
    C   1.0     0.830082     0.373363     0.293608  Biso 1.000000     C
    C   1.0     0.305686     0.490933     0.123811  Biso 1.000000     C
    C   1.0     0.213982     0.476632     0.026387  Biso 1.000000     C
    C   1.0     0.389777     0.445350     0.030494  Biso 1.000000     C
    C   1.0     0.477052     0.453251     0.128672  Biso 1.000000     C
    C   1.0     0.531487     0.526880     0.138115  Biso 1.000000     C
    C   1.0     0.631946     0.513326     0.165241  Biso 1.000000     C
    C   1.0     0.133464     0.528666     0.117099  Biso 1.000000     C
    C   1.0     0.062101     0.467489     0.137447  Biso 1.000000     C
    C   1.0     0.974775     0.502028     0.168789  Biso 1.000000     C
    C   1.0     0.302404     0.442230     0.932538  Biso 1.000000     C
    C   1.0     0.305591     0.360418     0.911920  Biso 1.000000     C
    C   1.0     0.294217     0.358545     0.842383  Biso 1.000000     C
    C   1.0     0.241413     0.160374     0.000000  Biso 1.000000     C
    C   1.0     0.418542     0.185829     0.991005  Biso 1.000000     C
    C   1.0     0.325753     0.235659     0.079660  Biso 1.000000     C
    C   1.0     0.152669     0.200176     0.092979  Biso 1.000000     C
    C   1.0     0.082487     0.262556     0.073901  Biso 1.000000     C
    C   1.0     0.989146     0.266633     0.112344  Biso 1.000000     C
    C   1.0     0.504133     0.254694     0.072806  Biso 1.000000     C
    C   1.0     0.561458     0.197560     0.110947  Biso 1.000000     C
    C   1.0     0.655181     0.229388     0.138350  Biso 1.000000     C
    C   1.0     0.332973     0.117421     0.909302  Biso 1.000000     C
    C   1.0     0.332241     0.170080     0.854231  Biso 1.000000     C
    C   1.0     0.328498     0.129253     0.793134  Biso 1.000000     C
    C   1.0     0.694374     0.511299     0.623646  Biso 1.000000     C
    C   1.0     0.787057     0.525590     0.526555  Biso 1.000000     C
    C   1.0     0.611248     0.557079     0.530012  Biso 1.000000     C
    C   1.0     0.522983     0.549081     0.627994  Biso 1.000000     C
    C   1.0     0.468575     0.475442     0.637837  Biso 1.000000     C
    C   1.0     0.368087     0.489196     0.664957  Biso 1.000000     C
    C   1.0     0.866605     0.473463     0.617620  Biso 1.000000     C
    C   1.0     0.937273     0.534961     0.638107  Biso 1.000000     C
    C   1.0     0.025131     0.500693     0.669090  Biso 1.000000     C
    C   1.0     0.699449     0.560140     0.432374  Biso 1.000000     C
    C   1.0     0.696583     0.642038     0.411754  Biso 1.000000     C
    C   1.0     0.706497     0.643826     0.342150  Biso 1.000000     C
    C   1.0     0.758064     0.841963     0.499584  Biso 1.000000     C
    C   1.0     0.581122     0.815604     0.491371  Biso 1.000000     C
    C   1.0     0.674421     0.768932     0.581050  Biso 1.000000     C
    C   1.0     0.847799     0.803984     0.592427  Biso 1.000000     C
    C   1.0     0.916244     0.740032     0.574605  Biso 1.000000     C
    C   1.0     0.009960     0.736308     0.612591  Biso 1.000000     C
    C   1.0     0.496570     0.747689     0.574236  Biso 1.000000     C
    C   1.0     0.438801     0.805154     0.611590  Biso 1.000000     C
    C   1.0     0.344676     0.773696     0.638777  Biso 1.000000     C
    C   1.0     0.665167     0.884374     0.408904  Biso 1.000000     C
    C   1.0     0.666746     0.832121     0.353688  Biso 1.000000     C
    C   1.0     0.669791     0.873244     0.292532  Biso 1.000000     C
    N   1.0     0.112700     0.962498     0.093331  Biso 1.000000     N
    N   1.0     0.278475     0.996915     0.087713  Biso 1.000000     N
    N   1.0     0.197941     0.951426    -0.000382  Biso 1.000000     N
    N   1.0     0.257233     0.698439     0.055614  Biso 1.000000     N
    N   1.0     0.087819     0.722650     0.048581  Biso 1.000000     N
    N   1.0     0.169189     0.658709     0.968144  Biso 1.000000     N
    N   1.0     0.886266     0.039111     0.592391  Biso 1.000000     N
    N   1.0     0.720455     0.004298     0.588113  Biso 1.000000     N
    N   1.0     0.798940     0.050322     0.499379  Biso 1.000000     N
    N   1.0     0.743159     0.303306     0.556381  Biso 1.000000     N
    N   1.0     0.912541     0.279041     0.548888  Biso 1.000000     N
    N   1.0     0.830616     0.343068     0.468625  Biso 1.000000     N
    N   1.0     0.386955     0.462959     0.092957  Biso 1.000000     N
    N   1.0     0.221173     0.497531     0.087949  Biso 1.000000     N
    N   1.0     0.300836     0.451951    -0.000450  Biso 1.000000     N
    N   1.0     0.243326     0.199276     0.055918  Biso 1.000000     N
    N   1.0     0.412821     0.222866     0.047621  Biso 1.000000     N
    N   1.0     0.329833     0.158332     0.968217  Biso 1.000000     N
    N   1.0     0.613361     0.539328     0.592513  Biso 1.000000     N
    N   1.0     0.779097     0.504384     0.588051  Biso 1.000000     N
    N   1.0     0.700473     0.550280     0.499371  Biso 1.000000     N
    N   1.0     0.756661     0.804351     0.555969  Biso 1.000000     N
    N   1.0     0.587484     0.779606     0.548468  Biso 1.000000     N
    N   1.0     0.669344     0.843357     0.467902  Biso 1.000000     N
    O   1.0     0.191991     0.000000     0.177877  Biso 1.000000     O
    O   1.0     0.362173     0.979799    -0.002327  Biso 1.000000     O
    O   1.0     0.034124     0.924952     0.005193  Biso 1.000000     O
    O   1.0     0.829189     0.950336     0.157416  Biso 1.000000     O
    O   1.0     0.828151     0.068323     0.194612  Biso 1.000000     O
    O   1.0     0.512619     0.047477     0.210742  Biso 1.000000     O
    O   1.0     0.612705     0.984352     0.149523  Biso 1.000000     O
    O   1.0     0.287346     0.880953     0.821363  Biso 1.000000     O
    O   1.0     0.132782     0.835196     0.811570  Biso 1.000000     O
    O   1.0     0.332881     0.631537     0.979166  Biso 1.000000     O
    O   1.0     0.003321     0.678401     0.965012  Biso 1.000000     O
    O   1.0     0.179521     0.771207     0.127774  Biso 1.000000     O
    O   1.0     0.521005     0.716663     0.154309  Biso 1.000000     O
    O   1.0     0.569800     0.818471     0.098893  Biso 1.000000     O
    O   1.0     0.179797     0.559712     0.791921  Biso 1.000000     O
    O   1.0     0.162847     0.671617     0.744201  Biso 1.000000     O
    O   1.0     0.803977     0.690327     0.181262  Biso 1.000000     O
    O   1.0     0.812777     0.790406     0.117237  Biso 1.000000     O
    O   1.0     0.808163    -0.006506     0.677830  Biso 1.000000     O
    O   1.0     0.634825     0.021254     0.498786  Biso 1.000000     O
    O   1.0     0.962454     0.077987     0.503692  Biso 1.000000     O
    O   1.0     0.170386     0.052088     0.655869  Biso 1.000000     O
    O   1.0     0.170780     0.935069     0.695514  Biso 1.000000     O
    O   1.0     0.487651     0.952771     0.712432  Biso 1.000000     O
    O   1.0     0.387718     0.018212     0.652840  Biso 1.000000     O
    O   1.0     0.712071     0.121780     0.320125  Biso 1.000000     O
    O   1.0     0.867299     0.166489     0.311674  Biso 1.000000     O
    O   1.0     0.667233     0.370925     0.480398  Biso 1.000000     O
    O   1.0     0.996005     0.321820     0.464142  Biso 1.000000     O
    O   1.0     0.821329     0.231261     0.628866  Biso 1.000000     O
    O   1.0     0.478396     0.285119     0.653683  Biso 1.000000     O
    O   1.0     0.431953     0.181600     0.599928  Biso 1.000000     O
    O   1.0     0.820168     0.443097     0.292889  Biso 1.000000     O
    O   1.0     0.836841     0.331483     0.244743  Biso 1.000000     O
    O   1.0     0.195842     0.313007     0.681641  Biso 1.000000     O
    O   1.0     0.187520     0.212539     0.618351  Biso 1.000000     O
    O   1.0     0.308105     0.508858     0.177958  Biso 1.000000     O
    O   1.0     0.136893     0.481213    -0.001953  Biso 1.000000     O
    O   1.0     0.464398     0.424742     0.004600  Biso 1.000000     O
    O   1.0     0.670626     0.450176     0.157363  Biso 1.000000     O
    O   1.0     0.671502     0.568116     0.194697  Biso 1.000000     O
    O   1.0     0.987601     0.549845     0.210885  Biso 1.000000     O
    O   1.0     0.887361     0.484123     0.151847  Biso 1.000000     O
    O   1.0     0.212680     0.381185     0.821278  Biso 1.000000     O
    O   1.0     0.367121     0.335120     0.811496  Biso 1.000000     O
    O   1.0     0.166684     0.130230     0.981355  Biso 1.000000     O
    O   1.0     0.495478     0.178411     0.963192  Biso 1.000000     O
    O   1.0     0.321533     0.274693     0.125784  Biso 1.000000     O
    O   1.0     0.978962     0.217177     0.154507  Biso 1.000000     O
    O   1.0     0.930108     0.318793     0.098950  Biso 1.000000     O
    O   1.0     0.316597     0.059732     0.791985  Biso 1.000000     O
    O   1.0     0.336767     0.171405     0.744394  Biso 1.000000     O
    O   1.0     0.695695     0.190367     0.181151  Biso 1.000000     O
    O   1.0     0.687339     0.290523     0.117231  Biso 1.000000     O
    O   1.0     0.691577     0.493563     0.677858  Biso 1.000000     O
    O   1.0     0.864583     0.521301     0.498641  Biso 1.000000     O
    O   1.0     0.537065     0.578069     0.503825  Biso 1.000000     O
    O   1.0     0.329196     0.552096     0.656062  Biso 1.000000     O
    O   1.0     0.328942     0.434917     0.695437  Biso 1.000000     O
    O   1.0     0.012727     0.453456     0.711857  Biso 1.000000     O
    O   1.0     0.112208     0.518085     0.651097  Biso 1.000000     O
    O   1.0     0.787960     0.622039     0.320358  Biso 1.000000     O
    O   1.0     0.632588     0.666359     0.311763  Biso 1.000000     O
    O   1.0     0.832591     0.871796     0.479931  Biso 1.000000     O
    O   1.0     0.503868     0.822055     0.463804  Biso 1.000000     O
    O   1.0     0.678696     0.732244     0.628552  Biso 1.000000     O
    O   1.0     0.021269     0.786943     0.653549  Biso 1.000000     O
    O   1.0     0.067998     0.683243     0.600098  Biso 1.000000     O
    O   1.0     0.679903     0.942929     0.291228  Biso 1.000000     O
    O   1.0     0.662858     0.831090     0.243841  Biso 1.000000     O
    O   1.0     0.303640     0.813332     0.680896  Biso 1.000000     O
    O   1.0     0.312637     0.712366     0.618179  Biso 1.000000     O
   Cd   1.0     0.697275     0.873563     0.148497  Biso 1.000000    Cd
   Cd   1.0     0.675966     0.058918     0.234604  Biso 1.000000    Cd
   Cd   1.0     0.851848     0.201135     0.215023  Biso 1.000000    Cd
   Cd   1.0     0.302707     0.128552     0.649380  Biso 1.000000    Cd
   Cd   1.0     0.323034     0.943378     0.735798  Biso 1.000000    Cd
   Cd   1.0     0.147682     0.801823     0.714643  Biso 1.000000    Cd
   Cd   1.0     0.802820     0.373486     0.149201  Biso 1.000000    Cd
   Cd   1.0     0.823429     0.558830     0.235267  Biso 1.000000    Cd
   Cd   1.0     0.647845     0.700905     0.214960  Biso 1.000000    Cd
   Cd   1.0     0.196853     0.628768     0.649127  Biso 1.000000    Cd
   Cd   1.0     0.176532     0.443407     0.735484  Biso 1.000000    Cd
   Cd   1.0     0.352107     0.301455     0.714726  Biso 1.000000    Cd
