#======================================================================

# CRYSTAL DATA

#----------------------------------------------------------------------

data_VESTA_phase_1


_pd_phase_name                         MOF
_cell_length_a                         22.67200
_cell_length_b                         22.18900
_cell_length_c                         29.05400
_cell_angle_alpha                      90.09600
_cell_angle_beta                       90.04100
_cell_angle_gamma                      89.32400
_symmetry_space_group_name_H-M         "P 1"
_symmetry_Int_Tables_number            1

loop_
_symmetry_equiv_pos_as_xyz
   "x, y, z"

loop_
   _atom_site_label
   _atom_site_occupancy
   _atom_site_fract_x
   _atom_site_fract_y
   _atom_site_fract_z
   _atom_site_adp_type
   _atom_site_B_iso_or_equiv
   _atom_site_type_symbol
    H   1.0     0.429544     0.981868     0.560200  Biso 1.000000     H
    H   1.0     0.929549     0.981869     0.560199  Biso 1.000000     H
    H   1.0     0.481054     0.972096     0.484810  Biso 1.000000     H
    H   1.0     0.981058     0.972098     0.484809  Biso 1.000000     H
    H   1.0     0.398476     0.800324     0.462852  Biso 1.000000     H
    H   1.0     0.898482     0.800324     0.462852  Biso 1.000000     H
    H   1.0     0.347245     0.810679     0.538583  Biso 1.000000     H
    H   1.0     0.847252     0.810678     0.538584  Biso 1.000000     H
    H   1.0     0.053786     0.962697     0.341626  Biso 1.000000     H
    H   1.0     0.553794     0.962696     0.341626  Biso 1.000000     H
    H   1.0     0.082118     0.859768     0.217518  Biso 1.000000     H
    H   1.0     0.582124     0.859768     0.217518  Biso 1.000000     H
    H   1.0     0.489339     0.780759     0.330965  Biso 1.000000     H
    H   1.0     0.989345     0.780760     0.330965  Biso 1.000000     H
    H   1.0     0.139479     0.705759     0.382843  Biso 1.000000     H
    H   1.0     0.639485     0.705759     0.382843  Biso 1.000000     H
    H   1.0     0.136018     0.757127     0.459234  Biso 1.000000     H
    H   1.0     0.636024     0.757127     0.459234  Biso 1.000000     H
    H   1.0     0.458791     0.693721     0.479213  Biso 1.000000     H
    H   1.0     0.958797     0.693721     0.479213  Biso 1.000000     H
    H   1.0     0.462527     0.643440     0.402146  Biso 1.000000     H
    H   1.0     0.962534     0.643440     0.402146  Biso 1.000000     H
    H   1.0     0.149789     0.812211     0.602448  Biso 1.000000     H
    H   1.0     0.649795     0.812211     0.602448  Biso 1.000000     H
    H   1.0     0.060309     0.870087     0.725600  Biso 1.000000     H
    H   1.0     0.560315     0.870087     0.725600  Biso 1.000000     H
    H   1.0     0.460234     0.797434     0.613125  Biso 1.000000     H
    H   1.0     0.960240     0.797434     0.613125  Biso 1.000000     H
    H   1.0     0.070069     0.016187     0.059770  Biso 1.000000     H
    H   1.0     0.570073     0.016189     0.059772  Biso 1.000000     H
    H   1.0     0.018473     0.026794     0.984464  Biso 1.000000     H
    H   1.0     0.518477     0.026795     0.984465  Biso 1.000000     H
    H   1.0     0.100887     0.198874     0.964110  Biso 1.000000     H
    H   1.0     0.600898     0.198871     0.964108  Biso 1.000000     H
    H   1.0     0.152276     0.187638     0.039707  Biso 1.000000     H
    H   1.0     0.652286     0.187636     0.039706  Biso 1.000000     H
    H   1.0     0.447185     0.036121     0.841766  Biso 1.000000     H
    H   1.0     0.947191     0.036121     0.841766  Biso 1.000000     H
    H   1.0     0.417684     0.138307     0.717700  Biso 1.000000     H
    H   1.0     0.917690     0.138307     0.717700  Biso 1.000000     H
    H   1.0     0.009291     0.218928     0.831382  Biso 1.000000     H
    H   1.0     0.509299     0.218928     0.831381  Biso 1.000000     H
    H   1.0     0.358286     0.294559     0.883262  Biso 1.000000     H
    H   1.0     0.858291     0.294565     0.883265  Biso 1.000000     H
    H   1.0     0.362286     0.243389     0.959584  Biso 1.000000     H
    H   1.0     0.862291     0.243399     0.959588  Biso 1.000000     H
    H   1.0     0.039871     0.306349     0.978858  Biso 1.000000     H
    H   1.0     0.539878     0.306343     0.978857  Biso 1.000000     H
    H   1.0     0.035556     0.356465     0.901895  Biso 1.000000     H
    H   1.0     0.535562     0.356463     0.901895  Biso 1.000000     H
    H   1.0     0.349863     0.188228     0.102541  Biso 1.000000     H
    H   1.0     0.849869     0.188233     0.102543  Biso 1.000000     H
    H   1.0     0.440046     0.128832     0.224910  Biso 1.000000     H
    H   1.0     0.940053     0.128832     0.224910  Biso 1.000000     H
    H   1.0     0.039586     0.202019     0.112629  Biso 1.000000     H
    H   1.0     0.539593     0.202014     0.112627  Biso 1.000000     H
    H   1.0     0.320456     0.481593     0.558334  Biso 1.000000     H
    H   1.0     0.820463     0.481593     0.558334  Biso 1.000000     H
    H   1.0     0.269129     0.471724     0.482938  Biso 1.000000     H
    H   1.0     0.769136     0.471725     0.482938  Biso 1.000000     H
    H   1.0     0.351155     0.297259     0.463215  Biso 1.000000     H
    H   1.0     0.851160     0.297258     0.463216  Biso 1.000000     H
    H   1.0     0.402183     0.307708     0.538940  Biso 1.000000     H
    H   1.0     0.902188     0.307708     0.538941  Biso 1.000000     H
    H   1.0     0.197451     0.463234     0.340032  Biso 1.000000     H
    H   1.0     0.697457     0.463234     0.340032  Biso 1.000000     H
    H   1.0     0.167627     0.359992     0.216588  Biso 1.000000     H
    H   1.0     0.667634     0.359992     0.216588  Biso 1.000000     H
    H   1.0     0.259071     0.278634     0.330753  Biso 1.000000     H
    H   1.0     0.759077     0.278634     0.330753  Biso 1.000000     H
    H   1.0     0.109982     0.204719     0.383042  Biso 1.000000     H
    H   1.0     0.609990     0.204722     0.383040  Biso 1.000000     H
    H   1.0     0.113636     0.256638     0.459178  Biso 1.000000     H
    H   1.0     0.613644     0.256642     0.459177  Biso 1.000000     H
    H   1.0     0.292048     0.191795     0.478306  Biso 1.000000     H
    H   1.0     0.792054     0.191793     0.478307  Biso 1.000000     H
    H   1.0     0.288098     0.141008     0.401496  Biso 1.000000     H
    H   1.0     0.788103     0.141006     0.401496  Biso 1.000000     H
    H   1.0     0.099693     0.310114     0.602292  Biso 1.000000     H
    H   1.0     0.599700     0.310114     0.602292  Biso 1.000000     H
    H   1.0     0.187998     0.368481     0.725335  Biso 1.000000     H
    H   1.0     0.688004     0.368481     0.725335  Biso 1.000000     H
    H   1.0     0.289787     0.297232     0.612480  Biso 1.000000     H
    H   1.0     0.789794     0.297232     0.612480  Biso 1.000000     H
    H   1.0     0.179769     0.518612     0.058214  Biso 1.000000     H
    H   1.0     0.679773     0.518611     0.058214  Biso 1.000000     H
    H   1.0     0.231069     0.528800     0.982922  Biso 1.000000     H
    H   1.0     0.731073     0.528799     0.982921  Biso 1.000000     H
    H   1.0     0.148002     0.702754     0.963508  Biso 1.000000     H
    H   1.0     0.648008     0.702754     0.963508  Biso 1.000000     H
    H   1.0     0.096939     0.691945     0.039091  Biso 1.000000     H
    H   1.0     0.596945     0.691945     0.039091  Biso 1.000000     H
    H   1.0     0.301771     0.537027     0.840200  Biso 1.000000     H
    H   1.0     0.801777     0.537026     0.840199  Biso 1.000000     H
    H   1.0     0.331995     0.639800     0.716905  Biso 1.000000     H
    H   1.0     0.832001     0.639800     0.716905  Biso 1.000000     H
    H   1.0     0.240684     0.721765     0.830994  Biso 1.000000     H
    H   1.0     0.740689     0.721765     0.830994  Biso 1.000000     H
    H   1.0     0.388884     0.794181     0.883997  Biso 1.000000     H
    H   1.0     0.888890     0.794181     0.883997  Biso 1.000000     H
    H   1.0     0.384172     0.742936     0.960223  Biso 1.000000     H
    H   1.0     0.884178     0.742936     0.960223  Biso 1.000000     H
    H   1.0     0.206024     0.809204     0.978029  Biso 1.000000     H
    H   1.0     0.706030     0.809204     0.978028  Biso 1.000000     H
    H   1.0     0.211071     0.859420     0.901193  Biso 1.000000     H
    H   1.0     0.711077     0.859419     0.901192  Biso 1.000000     H
    H   1.0     0.397559     0.689092     0.101884  Biso 1.000000     H
    H   1.0     0.897565     0.689092     0.101883  Biso 1.000000     H
    H   1.0     0.309976     0.630749     0.225006  Biso 1.000000     H
    H   1.0     0.809983     0.630749     0.225006  Biso 1.000000     H
    H   1.0     0.207621     0.703081     0.112931  Biso 1.000000     H
    H   1.0     0.707628     0.703080     0.112931  Biso 1.000000     H
    C   1.0     0.354957     0.901971     0.599355  Biso 1.000000     C
    C   1.0     0.854963     0.901971     0.599355  Biso 1.000000     C
    C   1.0     0.384847     0.897072     0.553893  Biso 1.000000     C
    C   1.0     0.884853     0.897072     0.553893  Biso 1.000000     C
    C   1.0     0.422840     0.942417     0.538578  Biso 1.000000     C
    C   1.0     0.922845     0.942418     0.538578  Biso 1.000000     C
    C   1.0     0.451599     0.936897     0.496596  Biso 1.000000     C
    C   1.0     0.951604     0.936898     0.496595  Biso 1.000000     C
    C   1.0     0.443007     0.885650     0.468515  Biso 1.000000     C
    C   1.0     0.943012     0.885651     0.468514  Biso 1.000000     C
    C   1.0     0.405042     0.839998     0.484288  Biso 1.000000     C
    C   1.0     0.905048     0.839998     0.484287  Biso 1.000000     C
    C   1.0     0.376505     0.845760     0.526327  Biso 1.000000     C
    C   1.0     0.876512     0.845760     0.526327  Biso 1.000000     C
    C   1.0     0.471058     0.880525     0.425139  Biso 1.000000     C
    C   1.0     0.971063     0.880525     0.425138  Biso 1.000000     C
    C   1.0     0.493809     0.876838     0.387143  Biso 1.000000     C
    C   1.0     0.993814     0.876838     0.387142  Biso 1.000000     C
    C   1.0     0.018325     0.872344     0.342334  Biso 1.000000     C
    C   1.0     0.518333     0.872343     0.342335  Biso 1.000000     C
    C   1.0     0.048354     0.920960     0.322471  Biso 1.000000     C
    C   1.0     0.548361     0.920960     0.322472  Biso 1.000000     C
    C   1.0     0.071092     0.916548     0.277758  Biso 1.000000     C
    C   1.0     0.571100     0.916548     0.277759  Biso 1.000000     C
    C   1.0     0.064449     0.863407     0.252233  Biso 1.000000     C
    C   1.0     0.564456     0.863407     0.252233  Biso 1.000000     C
    C   1.0     0.034846     0.814727     0.271753  Biso 1.000000     C
    C   1.0     0.534854     0.814727     0.271753  Biso 1.000000     C
    C   1.0     0.012060     0.819150     0.316365  Biso 1.000000     C
    C   1.0     0.512067     0.819150     0.316365  Biso 1.000000     C
    C   1.0     0.100961     0.970175     0.257957  Biso 1.000000     C
    C   1.0     0.600968     0.970175     0.257957  Biso 1.000000     C
    C   1.0     0.028060     0.756436     0.246158  Biso 1.000000     C
    C   1.0     0.528068     0.756436     0.246158  Biso 1.000000     C
    C   1.0     0.055189     0.641415     0.342432  Biso 1.000000     C
    C   1.0     0.555196     0.641415     0.342432  Biso 1.000000     C
    C   1.0     0.051447     0.671108     0.388135  Biso 1.000000     C
    C   1.0     0.551454     0.671108     0.388135  Biso 1.000000     C
    C   1.0     0.100237     0.703494     0.404280  Biso 1.000000     C
    C   1.0     0.600244     0.703494     0.404280  Biso 1.000000     C
    C   1.0     0.098282     0.732009     0.446648  Biso 1.000000     C
    C   1.0     0.598289     0.732008     0.446648  Biso 1.000000     C
    C   1.0     0.047322     0.728464     0.474440  Biso 1.000000     C
    C   1.0     0.547329     0.728463     0.474440  Biso 1.000000     C
    C   1.0    -0.001908     0.696524     0.457816  Biso 1.000000     C
    C   1.0     0.498099     0.696524     0.457816  Biso 1.000000     C
    C   1.0     0.000203     0.668346     0.415095  Biso 1.000000     C
    C   1.0     0.500210     0.668346     0.415095  Biso 1.000000     C
    C   1.0     0.047462     0.755611     0.518437  Biso 1.000000     C
    C   1.0     0.547469     0.755610     0.518437  Biso 1.000000     C
    C   1.0     0.051485     0.778133     0.556620  Biso 1.000000     C
    C   1.0     0.551492     0.778132     0.556620  Biso 1.000000     C
    C   1.0     0.054492     0.802771     0.601520  Biso 1.000000     C
    C   1.0     0.554499     0.802771     0.601520  Biso 1.000000     C
    C   1.0     0.108803     0.818775     0.621385  Biso 1.000000     C
    C   1.0     0.608809     0.818775     0.621386  Biso 1.000000     C
    C   1.0     0.110848     0.842524     0.665967  Biso 1.000000     C
    C   1.0     0.610855     0.842524     0.665967  Biso 1.000000     C
    C   1.0     0.058710     0.851199     0.691062  Biso 1.000000     C
    C   1.0     0.558717     0.851199     0.691062  Biso 1.000000     C
    C   1.0     0.004691     0.834483     0.671825  Biso 1.000000     C
    C   1.0     0.504698     0.834483     0.671825  Biso 1.000000     C
    C   1.0     0.002582     0.810319     0.627481  Biso 1.000000     C
    C   1.0     0.502589     0.810319     0.627481  Biso 1.000000     C
    C   1.0     0.169521     0.855774     0.687224  Biso 1.000000     C
    C   1.0     0.669528     0.855774     0.687224  Biso 1.000000     C
    C   1.0     0.447983     0.842462     0.697537  Biso 1.000000     C
    C   1.0     0.947989     0.842462     0.697537  Biso 1.000000     C
    C   1.0     0.144892     0.095755     0.099600  Biso 1.000000     C
    C   1.0     0.644899     0.095755     0.099600  Biso 1.000000     C
    C   1.0     0.114770     0.101053     0.054229  Biso 1.000000     C
    C   1.0     0.614777     0.101053     0.054229  Biso 1.000000     C
    C   1.0     0.076737     0.055886     0.038515  Biso 1.000000     C
    C   1.0     0.576742     0.055887     0.038515  Biso 1.000000     C
    C   1.0     0.047917     0.061868    -0.003434  Biso 1.000000     C
    C   1.0     0.547922     0.061869    -0.003434  Biso 1.000000     C
    C   1.0     0.056466     0.113421     0.968947  Biso 1.000000     C
    C   1.0     0.556474     0.113421     0.968946  Biso 1.000000     C
    C   1.0     0.094383     0.158942     0.985169  Biso 1.000000     C
    C   1.0     0.594392     0.158941     0.985168  Biso 1.000000     C
    C   1.0     0.122999     0.152692     0.027132  Biso 1.000000     C
    C   1.0     0.623008     0.152691     0.027131  Biso 1.000000     C
    C   1.0     0.028506     0.118888     0.925534  Biso 1.000000     C
    C   1.0     0.528514     0.118887     0.925533  Biso 1.000000     C
    C   1.0     0.005950     0.122737     0.887457  Biso 1.000000     C
    C   1.0     0.505957     0.122737     0.887457  Biso 1.000000     C
    C   1.0     0.481510     0.126950     0.842586  Biso 1.000000     C
    C   1.0     0.981516     0.126951     0.842586  Biso 1.000000     C
    C   1.0     0.452133     0.077853     0.822628  Biso 1.000000     C
    C   1.0     0.952139     0.077853     0.822628  Biso 1.000000     C
    C   1.0     0.429430     0.081782     0.777878  Biso 1.000000     C
    C   1.0     0.929436     0.081782     0.777878  Biso 1.000000     C
    C   1.0     0.435377     0.135012     0.752437  Biso 1.000000     C
    C   1.0     0.935383     0.135012     0.752437  Biso 1.000000     C
    C   1.0     0.464249     0.184225     0.772054  Biso 1.000000     C
    C   1.0     0.964255     0.184225     0.772054  Biso 1.000000     C
    C   1.0     0.487094     0.180185     0.816696  Biso 1.000000     C
    C   1.0     0.987100     0.180185     0.816697  Biso 1.000000     C
    C   1.0     0.400050     0.027724     0.758022  Biso 1.000000     C
    C   1.0     0.900057     0.027724     0.758022  Biso 1.000000     C
    C   1.0     0.470197     0.242675     0.746589  Biso 1.000000     C
    C   1.0     0.970204     0.242675     0.746589  Biso 1.000000     C
    C   1.0     0.442476     0.358570     0.842515  Biso 1.000000     C
    C   1.0     0.942482     0.358571     0.842516  Biso 1.000000     C
    C   1.0     0.446444     0.329007     0.888205  Biso 1.000000     C
    C   1.0     0.946450     0.329011     0.888206  Biso 1.000000     C
    C   1.0     0.397722     0.296791     0.904536  Biso 1.000000     C
    C   1.0     0.897727     0.296797     0.904539  Biso 1.000000     C
    C   1.0     0.399981     0.268377     0.946877  Biso 1.000000     C
    C   1.0     0.899986     0.268386     0.946880  Biso 1.000000     C
    C   1.0     0.451201     0.271814     0.974464  Biso 1.000000     C
    C   1.0     0.951206     0.271822     0.974466  Biso 1.000000     C
    C   1.0     0.500349     0.303602     0.957648  Biso 1.000000     C
    C   1.0     0.000000     0.303608     0.957650  Biso 1.000000     C
    C   1.0     0.497921     0.331698     0.914972  Biso 1.000000     C
    C   1.0     0.997928     0.331702     0.914973  Biso 1.000000     C
    C   1.0     0.451448     0.244658     0.018395  Biso 1.000000     C
    C   1.0     0.951454     0.244666     0.018398  Biso 1.000000     C
    C   1.0     0.447883     0.222060     0.056527  Biso 1.000000     C
    C   1.0     0.947889     0.222067     0.056530  Biso 1.000000     C
    C   1.0     0.445202     0.197172     0.101313  Biso 1.000000     C
    C   1.0     0.945208     0.197178     0.101315  Biso 1.000000     C
    C   1.0     0.390964     0.181301     0.121287  Biso 1.000000     C
    C   1.0     0.890971     0.181306     0.121288  Biso 1.000000     C
    C   1.0     0.389130     0.157226     0.165716  Biso 1.000000     C
    C   1.0     0.889137     0.157228     0.165717  Biso 1.000000     C
    C   1.0     0.441455     0.148014     0.190511  Biso 1.000000     C
    C   1.0     0.941462     0.148015     0.190511  Biso 1.000000     C
    C   1.0     0.495427     0.164599     0.171201  Biso 1.000000     C
    C   1.0     0.995433     0.164601     0.171202  Biso 1.000000     C
    C   1.0     0.497296     0.189176     0.127039  Biso 1.000000     C
    C   1.0     0.997303     0.189180     0.127040  Biso 1.000000     C
    C   1.0     0.330512     0.144162     0.187104  Biso 1.000000     C
    C   1.0     0.830519     0.144163     0.187104  Biso 1.000000     C
    C   1.0     0.052266     0.156192     0.196761  Biso 1.000000     C
    C   1.0     0.552273     0.156191     0.196760  Biso 1.000000     C
    C   1.0     0.394793     0.400391     0.598653  Biso 1.000000     C
    C   1.0     0.894800     0.400391     0.598653  Biso 1.000000     C
    C   1.0     0.364904     0.395455     0.553176  Biso 1.000000     C
    C   1.0     0.864911     0.395455     0.553176  Biso 1.000000     C
    C   1.0     0.327097     0.441517     0.537211  Biso 1.000000     C
    C   1.0     0.827103     0.441517     0.537211  Biso 1.000000     C
    C   1.0     0.298424     0.435943     0.495208  Biso 1.000000     C
    C   1.0     0.798431     0.435943     0.495208  Biso 1.000000     C
    C   1.0     0.306897     0.383934     0.467705  Biso 1.000000     C
    C   1.0     0.806902     0.383933     0.467705  Biso 1.000000     C
    C   1.0     0.344643     0.337552     0.484148  Biso 1.000000     C
    C   1.0     0.844649     0.337551     0.484149  Biso 1.000000     C
    C   1.0     0.373088     0.343369     0.526210  Biso 1.000000     C
    C   1.0     0.873094     0.343368     0.526210  Biso 1.000000     C
    C   1.0     0.278945     0.378913     0.424269  Biso 1.000000     C
    C   1.0     0.778951     0.378913     0.424270  Biso 1.000000     C
    C   1.0     0.256173     0.375586     0.386254  Biso 1.000000     C
    C   1.0     0.756179     0.375585     0.386254  Biso 1.000000     C
    C   1.0     0.231577     0.371517     0.341425  Biso 1.000000     C
    C   1.0     0.731583     0.371517     0.341425  Biso 1.000000     C
    C   1.0     0.202299     0.421083     0.321160  Biso 1.000000     C
    C   1.0     0.702305     0.421083     0.321160  Biso 1.000000     C
    C   1.0     0.179534     0.417099     0.276424  Biso 1.000000     C
    C   1.0     0.679541     0.417099     0.276424  Biso 1.000000     C
    C   1.0     0.185344     0.363345     0.251303  Biso 1.000000     C
    C   1.0     0.685350     0.363345     0.251303  Biso 1.000000     C
    C   1.0     0.214100     0.313665     0.271237  Biso 1.000000     C
    C   1.0     0.714107     0.313665     0.271237  Biso 1.000000     C
    C   1.0     0.236974     0.317761     0.315846  Biso 1.000000     C
    C   1.0     0.736980     0.317761     0.315847  Biso 1.000000     C
    C   1.0     0.150212     0.471694     0.256339  Biso 1.000000     C
    C   1.0     0.650219     0.471694     0.256339  Biso 1.000000     C
    C   1.0     0.220076     0.254673     0.246157  Biso 1.000000     C
    C   1.0     0.720082     0.254673     0.246157  Biso 1.000000     C
    C   1.0     0.194785     0.139159     0.342414  Biso 1.000000     C
    C   1.0     0.694791     0.139159     0.342414  Biso 1.000000     C
    C   1.0     0.198562     0.169277     0.387935  Biso 1.000000     C
    C   1.0     0.698569     0.169278     0.387935  Biso 1.000000     C
    C   1.0     0.149521     0.202257     0.404240  Biso 1.000000     C
    C   1.0     0.649528     0.202259     0.404239  Biso 1.000000     C
    C   1.0     0.151586     0.231080     0.446476  Biso 1.000000     C
    C   1.0     0.651594     0.231082     0.446475  Biso 1.000000     C
    C   1.0     0.202916     0.227261     0.473993  Biso 1.000000     C
    C   1.0     0.702923     0.227261     0.473993  Biso 1.000000     C
    C   1.0     0.252423     0.194803     0.457161  Biso 1.000000     C
    C   1.0     0.752429     0.194802     0.457162  Biso 1.000000     C
    C   1.0     0.250193     0.166323     0.414575  Biso 1.000000     C
    C   1.0     0.750200     0.166322     0.414576  Biso 1.000000     C
    C   1.0     0.202798     0.254556     0.517956  Biso 1.000000     C
    C   1.0     0.702805     0.254556     0.517956  Biso 1.000000     C
    C   1.0     0.198688     0.277076     0.556170  Biso 1.000000     C
    C   1.0     0.698695     0.277076     0.556170  Biso 1.000000     C
    C   1.0     0.195279     0.301644     0.601112  Biso 1.000000     C
    C   1.0     0.695286     0.301644     0.601112  Biso 1.000000     C
    C   1.0     0.140564     0.317046     0.621148  Biso 1.000000     C
    C   1.0     0.640570     0.317046     0.621148  Biso 1.000000     C
    C   1.0     0.137991     0.340616     0.665790  Biso 1.000000     C
    C   1.0     0.637998     0.340616     0.665790  Biso 1.000000     C
    C   1.0     0.189991     0.349745     0.690750  Biso 1.000000     C
    C   1.0     0.689997     0.349745     0.690750  Biso 1.000000     C
    C   1.0     0.244443     0.333665     0.671355  Biso 1.000000     C
    C   1.0     0.744450     0.333665     0.671355  Biso 1.000000     C
    C   1.0     0.247101     0.309654     0.626962  Biso 1.000000     C
    C   1.0     0.747108     0.309654     0.626962  Biso 1.000000     C
    C   1.0     0.079049     0.353248     0.687256  Biso 1.000000     C
    C   1.0     0.579056     0.353248     0.687256  Biso 1.000000     C
    C   1.0     0.300935     0.342087     0.697116  Biso 1.000000     C
    C   1.0     0.800942     0.342087     0.697116  Biso 1.000000     C
    C   1.0     0.104836     0.599375     0.098567  Biso 1.000000     C
    C   1.0     0.604842     0.599375     0.098567  Biso 1.000000     C
    C   1.0     0.134769     0.604450     0.053171  Biso 1.000000     C
    C   1.0     0.634774     0.604450     0.053171  Biso 1.000000     C
    C   1.0     0.172887     0.558636     0.037172  Biso 1.000000     C
    C   1.0     0.672892     0.558636     0.037172  Biso 1.000000     C
    C   1.0     0.201540     0.564388    -0.004778  Biso 1.000000     C
    C   1.0     0.701545     0.564388    -0.004779  Biso 1.000000     C
    C   1.0     0.192767     0.616348     0.967849  Biso 1.000000     C
    C   1.0     0.692772     0.616347     0.967848  Biso 1.000000     C
    C   1.0     0.154729     0.662492     0.984342  Biso 1.000000     C
    C   1.0     0.654735     0.662492     0.984341  Biso 1.000000     C
    C   1.0     0.126269     0.656477     0.026317  Biso 1.000000     C
    C   1.0     0.626275     0.656477     0.026317  Biso 1.000000     C
    C   1.0     0.220695     0.621522     0.924461  Biso 1.000000     C
    C   1.0     0.720700     0.621521     0.924460  Biso 1.000000     C
    C   1.0     0.243424     0.624927     0.886468  Biso 1.000000     C
    C   1.0     0.743429     0.624927     0.886468  Biso 1.000000     C
    C   1.0     0.267996     0.628868     0.841664  Biso 1.000000     C
    C   1.0     0.768001     0.628867     0.841663  Biso 1.000000     C
    C   1.0     0.297096     0.579149     0.821372  Biso 1.000000     C
    C   1.0     0.797101     0.579149     0.821372  Biso 1.000000     C
    C   1.0     0.319874     0.582940     0.776665  Biso 1.000000     C
    C   1.0     0.819880     0.582940     0.776665  Biso 1.000000     C
    C   1.0     0.314267     0.636607     0.751594  Biso 1.000000     C
    C   1.0     0.814273     0.636607     0.751594  Biso 1.000000     C
    C   1.0     0.285596     0.686384     0.771519  Biso 1.000000     C
    C   1.0     0.785602     0.686384     0.771519  Biso 1.000000     C
    C   1.0     0.262715     0.682540     0.816103  Biso 1.000000     C
    C   1.0     0.762721     0.682539     0.816103  Biso 1.000000     C
    C   1.0     0.348886     0.528194     0.756508  Biso 1.000000     C
    C   1.0     0.848892     0.528194     0.756508  Biso 1.000000     C
    C   1.0     0.279680     0.745150     0.746348  Biso 1.000000     C
    C   1.0     0.779687     0.745150     0.746348  Biso 1.000000     C
    C   1.0     0.304867     0.859919     0.842624  Biso 1.000000     C
    C   1.0     0.804874     0.859919     0.842624  Biso 1.000000     C
    C   1.0     0.300506     0.830310     0.888226  Biso 1.000000     C
    C   1.0     0.800512     0.830310     0.888226  Biso 1.000000     C
    C   1.0     0.349171     0.797114     0.904929  Biso 1.000000     C
    C   1.0     0.849178     0.797114     0.904929  Biso 1.000000     C
    C   1.0     0.346518     0.768662     0.947209  Biso 1.000000     C
    C   1.0     0.846525     0.768662     0.947209  Biso 1.000000     C
    C   1.0     0.294942     0.773010     0.974364  Biso 1.000000     C
    C   1.0     0.794948     0.773009     0.974364  Biso 1.000000     C
    C   1.0     0.245838     0.805748     0.957167  Biso 1.000000     C
    C   1.0     0.745844     0.805747     0.957167  Biso 1.000000     C
    C   1.0     0.248674     0.833906     0.914552  Biso 1.000000     C
    C   1.0     0.748680     0.833906     0.914552  Biso 1.000000     C
    C   1.0     0.294526     0.745808     0.018277  Biso 1.000000     C
    C   1.0     0.794532     0.745807     0.018276  Biso 1.000000     C
    C   1.0     0.298473     0.723087     0.056379  Biso 1.000000     C
    C   1.0     0.798479     0.723086     0.056379  Biso 1.000000     C
    C   1.0     0.302014     0.698226     0.101164  Biso 1.000000     C
    C   1.0     0.802020     0.698225     0.101164  Biso 1.000000     C
    C   1.0     0.356812     0.682351     0.120881  Biso 1.000000     C
    C   1.0     0.856819     0.682350     0.120881  Biso 1.000000     C
    C   1.0     0.359649     0.658579     0.165391  Biso 1.000000     C
    C   1.0     0.859655     0.658578     0.165391  Biso 1.000000     C
    C   1.0     0.307787     0.649646     0.190524  Biso 1.000000     C
    C   1.0     0.807794     0.649645     0.190524  Biso 1.000000     C
    C   1.0     0.253242     0.666061     0.171414  Biso 1.000000     C
    C   1.0     0.753249     0.666061     0.171413  Biso 1.000000     C
    C   1.0     0.250368     0.690351     0.127166  Biso 1.000000     C
    C   1.0     0.750374     0.690351     0.127166  Biso 1.000000     C
    C   1.0     0.418754     0.645570     0.186532  Biso 1.000000     C
    C   1.0     0.918761     0.645570     0.186532  Biso 1.000000     C
    C   1.0     0.196796     0.657706     0.197212  Biso 1.000000     C
    C   1.0     0.696803     0.657706     0.197212  Biso 1.000000     C
    O   1.0     0.310539     0.902742     0.722080  Biso 1.000000     O
    O   1.0     0.810545     0.902742     0.722080  Biso 1.000000     O
    O   1.0     0.322576     0.859293     0.612452  Biso 1.000000     O
    O   1.0     0.822583     0.859293     0.612452  Biso 1.000000     O
    O   1.0     0.365084     0.951031     0.622493  Biso 1.000000     O
    O   1.0     0.865091     0.951031     0.622493  Biso 1.000000     O
    O   1.0     0.105314     0.016212     0.283527  Biso 1.000000     O
    O   1.0     0.605321     0.016212     0.283527  Biso 1.000000     O
    O   1.0     0.119728     0.966002     0.216000  Biso 1.000000     O
    O   1.0     0.619735     0.966002     0.216000  Biso 1.000000     O
    O   1.0     0.050121     0.752068     0.205910  Biso 1.000000     O
    O   1.0     0.550128     0.752069     0.205910  Biso 1.000000     O
    O   1.0     0.501107     0.715069     0.267625  Biso 1.000000     O
    O   1.0     0.000000     0.715070     0.267625  Biso 1.000000     O
    O   1.0     0.104974     0.645787     0.321832  Biso 1.000000     O
    O   1.0     0.604980     0.645787     0.321832  Biso 1.000000     O
    O   1.0     0.009946     0.614324     0.326345  Biso 1.000000     O
    O   1.0     0.509952     0.614324     0.326345  Biso 1.000000     O
    O   1.0     0.215295     0.838721     0.665871  Biso 1.000000     O
    O   1.0     0.715301     0.838721     0.665871  Biso 1.000000     O
    O   1.0     0.168389     0.883016     0.726624  Biso 1.000000     O
    O   1.0     0.668395     0.883016     0.726624  Biso 1.000000     O
    O   1.0     0.402080     0.820597     0.680066  Biso 1.000000     O
    O   1.0     0.902086     0.820597     0.680066  Biso 1.000000     O
    O   1.0     0.450626     0.872387     0.735664  Biso 1.000000     O
    O   1.0     0.950633     0.872388     0.735664  Biso 1.000000     O
    O   1.0     0.189693     0.096099     0.221827  Biso 1.000000     O
    O   1.0     0.689700     0.096100     0.221827  Biso 1.000000     O
    O   1.0     0.177483     0.138253     0.112833  Biso 1.000000     O
    O   1.0     0.677490     0.138253     0.112833  Biso 1.000000     O
    O   1.0     0.134793     0.046623     0.122544  Biso 1.000000     O
    O   1.0     0.634800     0.046623     0.122544  Biso 1.000000     O
    O   1.0     0.395040     0.982014     0.783742  Biso 1.000000     O
    O   1.0     0.895047     0.982014     0.783742  Biso 1.000000     O
    O   1.0     0.382249     0.031384     0.715776  Biso 1.000000     O
    O   1.0     0.882256     0.031384     0.715776  Biso 1.000000     O
    O   1.0     0.447247     0.246963     0.706593  Biso 1.000000     O
    O   1.0     0.947254     0.246963     0.706593  Biso 1.000000     O
    O   1.0    -0.002697     0.284212     0.767853  Biso 1.000000     O
    O   1.0     0.497309     0.284212     0.767853  Biso 1.000000     O
    O   1.0     0.392641     0.354158     0.821922  Biso 1.000000     O
    O   1.0     0.892647     0.354158     0.821922  Biso 1.000000     O
    O   1.0     0.487666     0.385638     0.826433  Biso 1.000000     O
    O   1.0     0.987673     0.385638     0.826433  Biso 1.000000     O
    O   1.0     0.284669     0.161219     0.165834  Biso 1.000000     O
    O   1.0     0.784675     0.161219     0.165834  Biso 1.000000     O
    O   1.0     0.331734     0.117089     0.226503  Biso 1.000000     O
    O   1.0     0.831740     0.117089     0.226503  Biso 1.000000     O
    O   1.0     0.097972     0.179162     0.179953  Biso 1.000000     O
    O   1.0     0.597978     0.179162     0.179953  Biso 1.000000     O
    O   1.0     0.049810     0.124852     0.234152  Biso 1.000000     O
    O   1.0     0.549817     0.124852     0.234152  Biso 1.000000     O
    O   1.0     0.437470     0.401013     0.721730  Biso 1.000000     O
    O   1.0     0.937476     0.401013     0.721730  Biso 1.000000     O
    O   1.0     0.426896     0.357015     0.612296  Biso 1.000000     O
    O   1.0     0.926903     0.357015     0.612296  Biso 1.000000     O
    O   1.0     0.385002     0.450281     0.621206  Biso 1.000000     O
    O   1.0     0.885009     0.450281     0.621206  Biso 1.000000     O
    O   1.0     0.145241     0.517682     0.282007  Biso 1.000000     O
    O   1.0     0.645248     0.517682     0.282007  Biso 1.000000     O
    O   1.0     0.132416     0.468284     0.214085  Biso 1.000000     O
    O   1.0     0.632423     0.468284     0.214085  Biso 1.000000     O
    O   1.0     0.197253     0.250238     0.206180  Biso 1.000000     O
    O   1.0     0.697259     0.250238     0.206180  Biso 1.000000     O
    O   1.0     0.247230     0.212894     0.267776  Biso 1.000000     O
    O   1.0     0.747237     0.212894     0.267776  Biso 1.000000     O
    O   1.0     0.144721     0.143537     0.322024  Biso 1.000000     O
    O   1.0     0.644727     0.143537     0.322024  Biso 1.000000     O
    O   1.0     0.240348     0.111670     0.326256  Biso 1.000000     O
    O   1.0     0.740354     0.111670     0.326256  Biso 1.000000     O
    O   1.0     0.033712     0.336014     0.665845  Biso 1.000000     O
    O   1.0     0.533719     0.336014     0.665845  Biso 1.000000     O
    O   1.0     0.079460     0.380199     0.726756  Biso 1.000000     O
    O   1.0     0.579467     0.380199     0.726756  Biso 1.000000     O
    O   1.0     0.347491     0.320309     0.679885  Biso 1.000000     O
    O   1.0     0.847498     0.320309     0.679885  Biso 1.000000     O
    O   1.0     0.297339     0.372235     0.735115  Biso 1.000000     O
    O   1.0     0.797345     0.372235     0.735115  Biso 1.000000     O
    O   1.0     0.060343     0.598086     0.221591  Biso 1.000000     O
    O   1.0     0.560349     0.598086     0.221591  Biso 1.000000     O
    O   1.0     0.072296     0.642514     0.112085  Biso 1.000000     O
    O   1.0     0.572302     0.642514     0.112085  Biso 1.000000     O
    O   1.0     0.115073     0.549739     0.121202  Biso 1.000000     O
    O   1.0     0.615080     0.549739     0.121202  Biso 1.000000     O
    O   1.0     0.352662     0.482018     0.781963  Biso 1.000000     O
    O   1.0     0.852669     0.482018     0.781963  Biso 1.000000     O
    O   1.0     0.367570     0.531686     0.714518  Biso 1.000000     O
    O   1.0     0.867577     0.531686     0.714518  Biso 1.000000     O
    O   1.0     0.302706     0.749260     0.706436  Biso 1.000000     O
    O   1.0     0.802712     0.749260     0.706435  Biso 1.000000     O
    O   1.0     0.252401     0.787043     0.767772  Biso 1.000000     O
    O   1.0     0.752408     0.787043     0.767772  Biso 1.000000     O
    O   1.0     0.354800     0.854228     0.822209  Biso 1.000000     O
    O   1.0     0.854806     0.854228     0.822209  Biso 1.000000     O
    O   1.0     0.259845     0.888257     0.826392  Biso 1.000000     O
    O   1.0     0.759852     0.888257     0.826392  Biso 1.000000     O
    O   1.0     0.464074     0.661541     0.164573  Biso 1.000000     O
    O   1.0     0.964081     0.661541     0.164572  Biso 1.000000     O
    O   1.0     0.418428     0.619634     0.226354  Biso 1.000000     O
    O   1.0     0.918435     0.619634     0.226354  Biso 1.000000     O
    O   1.0     0.150229     0.679555     0.180081  Biso 1.000000     O
    O   1.0     0.650236     0.679555     0.180081  Biso 1.000000     O
    O   1.0     0.200397     0.627483     0.235127  Biso 1.000000     O
    O   1.0     0.700403     0.627483     0.235127  Biso 1.000000     O
   Zn   1.0     0.307392     0.830878     0.677803  Biso 1.000000    Zn
   Zn   1.0     0.807399     0.830878     0.677803  Biso 1.000000    Zn
   Zn   1.0     0.377660     0.895920     0.766680  Biso 1.000000    Zn
   Zn   1.0     0.877667     0.895920     0.766680  Biso 1.000000    Zn
   Zn   1.0     0.242434     0.877383     0.760068  Biso 1.000000    Zn
   Zn   1.0     0.742440     0.877383     0.760068  Biso 1.000000    Zn
   Zn   1.0     0.345183     0.963690     0.685735  Biso 1.000000    Zn
   Zn   1.0     0.845189     0.963690     0.685735  Biso 1.000000    Zn
   Zn   1.0     0.192546     0.168067     0.177880  Biso 1.000000    Zn
   Zn   1.0     0.692553     0.168067     0.177880  Biso 1.000000    Zn
   Zn   1.0     0.122367     0.101919     0.266210  Biso 1.000000    Zn
   Zn   1.0     0.622373     0.101919     0.266210  Biso 1.000000    Zn
   Zn   1.0     0.257606     0.122571     0.259953  Biso 1.000000    Zn
   Zn   1.0     0.757612     0.122571     0.259953  Biso 1.000000    Zn
   Zn   1.0     0.155251     0.034189     0.185746  Biso 1.000000    Zn
   Zn   1.0     0.655258     0.034189     0.185746  Biso 1.000000    Zn
   Zn   1.0     0.442260     0.328599     0.677814  Biso 1.000000    Zn
   Zn   1.0     0.942267     0.328599     0.677814  Biso 1.000000    Zn
   Zn   1.0     0.369993     0.395660     0.765933  Biso 1.000000    Zn
   Zn   1.0     0.869999     0.395660     0.765933  Biso 1.000000    Zn
   Zn   1.0     0.005362     0.374662     0.760125  Biso 1.000000    Zn
   Zn   1.0     0.505368     0.374662     0.760125  Biso 1.000000    Zn
   Zn   1.0     0.404662     0.463072     0.684363  Biso 1.000000    Zn
   Zn   1.0     0.904669     0.463072     0.684363  Biso 1.000000    Zn
   Zn   1.0     0.055230     0.669707     0.177561  Biso 1.000000    Zn
   Zn   1.0     0.555237     0.669707     0.177561  Biso 1.000000    Zn
   Zn   1.0     0.127718     0.604172     0.265923  Biso 1.000000    Zn
   Zn   1.0     0.627724     0.604172     0.265923  Biso 1.000000    Zn
   Zn   1.0     0.492348     0.624978     0.259993  Biso 1.000000    Zn
   Zn   1.0     0.992355     0.624978     0.259993  Biso 1.000000    Zn
   Zn   1.0     0.095077     0.536801     0.184241  Biso 1.000000    Zn
   Zn   1.0     0.595083     0.536801     0.184241  Biso 1.000000    Zn
