#======================================================================

# CRYSTAL DATA

#----------------------------------------------------------------------

data_VESTA_phase_1


_pd_phase_name                         MOF
_cell_length_a                         12.56300
_cell_length_b                         12.56100
_cell_length_c                         25.82800
_cell_angle_alpha                      90.00000
_cell_angle_beta                       90.00000
_cell_angle_gamma                      89.99200
_symmetry_space_group_name_H-M         "P 1"
_symmetry_Int_Tables_number            1

loop_
_symmetry_equiv_pos_as_xyz
   "x, y, z"

loop_
   _atom_site_label
   _atom_site_occupancy
   _atom_site_fract_x
   _atom_site_fract_y
   _atom_site_fract_z
   _atom_site_adp_type
   _atom_site_B_iso_or_equiv
   _atom_site_type_symbol
    H   1.0     0.916450     0.558385     0.871817  Biso 1.000000     H
    H   1.0     0.935363     0.408780     0.807943  Biso 1.000000     H
    H   1.0     0.636891     0.512633     0.740832  Biso 1.000000     H
    H   1.0     0.629114     0.651673     0.809015  Biso 1.000000     H
    H   1.0     0.642650     0.327732     0.719842  Biso 1.000000     H
    H   1.0     0.705829     0.416199     0.674115  Biso 1.000000     H
    H   1.0     0.595187     0.174414     0.655008  Biso 1.000000     H
    H   1.0     0.685956     0.156619     0.602826  Biso 1.000000     H
    H   1.0     0.420131     0.111501     0.487273  Biso 1.000000     H
    H   1.0     0.554487     0.116769     0.558402  Biso 1.000000     H
    H   1.0     0.497766     0.456851     0.567743  Biso 1.000000     H
    H   1.0     0.363384     0.434700     0.497274  Biso 1.000000     H
    H   1.0     0.509143     0.795958     0.929826  Biso 1.000000     H
    H   1.0     0.583577     0.941679     0.871824  Biso 1.000000     H
    H   1.0     0.564672     0.091248     0.807950  Biso 1.000000     H
    H   1.0     0.863117     0.987406     0.740827  Biso 1.000000     H
    H   1.0     0.870893     0.848365     0.809010  Biso 1.000000     H
    H   1.0     0.857376     0.172277     0.719841  Biso 1.000000     H
    H   1.0     0.794192     0.083812     0.674115  Biso 1.000000     H
    H   1.0     0.904838     0.325597     0.655009  Biso 1.000000     H
    H   1.0     0.814070     0.343395     0.602826  Biso 1.000000     H
    H   1.0     0.079874     0.388507     0.487272  Biso 1.000000     H
    H   1.0     0.945538     0.383242     0.558402  Biso 1.000000     H
    H   1.0     0.002239     0.043160     0.567743  Biso 1.000000     H
    H   1.0     0.136619     0.065308     0.497273  Biso 1.000000     H
    H   1.0     0.990879     0.704110     0.929834  Biso 1.000000     H
    H   1.0     0.441756     0.416376     0.371838  Biso 1.000000     H
    H   1.0     0.591322     0.435307     0.307962  Biso 1.000000     H
    H   1.0     0.487363     0.136972     0.240737  Biso 1.000000     H
    H   1.0     0.348346     0.129168     0.308919  Biso 1.000000     H
    H   1.0     0.672312     0.142633     0.219797  Biso 1.000000     H
    H   1.0     0.583851     0.205851     0.174076  Biso 1.000000     H
    H   1.0     0.825615     0.095150     0.154969  Biso 1.000000     H
    H   1.0     0.843362     0.185915     0.102777  Biso 1.000000     H
    H   1.0     0.888447     0.920111     0.987236  Biso 1.000000     H
    H   1.0     0.883202     0.054423     0.058362  Biso 1.000000     H
    H   1.0     0.543175     0.997762     0.067737  Biso 1.000000     H
    H   1.0     0.565319     0.863380     0.997271  Biso 1.000000     H
    H   1.0     0.204044     0.009194     0.429796  Biso 1.000000     H
    H   1.0     0.058259     0.083630     0.371831  Biso 1.000000     H
    H   1.0     0.908707     0.064703     0.307957  Biso 1.000000     H
    H   1.0     0.012643     0.363045     0.240736  Biso 1.000000     H
    H   1.0     0.151662     0.370845     0.308918  Biso 1.000000     H
    H   1.0     0.827709     0.357383     0.219797  Biso 1.000000     H
    H   1.0     0.916169     0.294168     0.174075  Biso 1.000000     H
    H   1.0     0.674407     0.404869     0.154970  Biso 1.000000     H
    H   1.0     0.656657     0.314104     0.102777  Biso 1.000000     H
    H   1.0     0.611568     0.579950     0.987242  Biso 1.000000     H
    H   1.0     0.616815     0.445607     0.058368  Biso 1.000000     H
    H   1.0     0.956841     0.502277     0.067730  Biso 1.000000     H
    H   1.0     0.934703     0.636652     0.997265  Biso 1.000000     H
    H   1.0     0.295960     0.490815     0.429796  Biso 1.000000     H
    H   1.0     0.083566     0.441656     0.128197  Biso 1.000000     H
    H   1.0     0.064655     0.591264     0.192070  Biso 1.000000     H
    H   1.0     0.363112     0.487389     0.259192  Biso 1.000000     H
    H   1.0     0.370886     0.348347     0.191009  Biso 1.000000     H
    H   1.0     0.357361     0.672294     0.280177  Biso 1.000000     H
    H   1.0     0.294178     0.583833     0.325902  Biso 1.000000     H
    H   1.0     0.404825     0.825619     0.345009  Biso 1.000000     H
    H   1.0     0.314052     0.843415     0.397192  Biso 1.000000     H
    H   1.0     0.579881     0.888526     0.512746  Biso 1.000000     H
    H   1.0     0.445525     0.883261     0.441617  Biso 1.000000     H
    H   1.0     0.502240     0.543179     0.432276  Biso 1.000000     H
    H   1.0     0.636621     0.565328     0.502746  Biso 1.000000     H
    H   1.0     0.490871     0.204096     0.070183  Biso 1.000000     H
    H   1.0     0.416442     0.058369     0.128201  Biso 1.000000     H
    H   1.0     0.435348     0.908800     0.192074  Biso 1.000000     H
    H   1.0     0.136884     0.012615     0.259187  Biso 1.000000     H
    H   1.0     0.129106     0.151655     0.191004  Biso 1.000000     H
    H   1.0     0.142636     0.827755     0.280176  Biso 1.000000     H
    H   1.0     0.205817     0.916217     0.325902  Biso 1.000000     H
    H   1.0     0.095172     0.674432     0.345010  Biso 1.000000     H
    H   1.0     0.185946     0.656638     0.397192  Biso 1.000000     H
    H   1.0     0.920129     0.611519     0.512742  Biso 1.000000     H
    H   1.0     0.054470     0.616788     0.441615  Biso 1.000000     H
    H   1.0     0.997773     0.956870     0.432278  Biso 1.000000     H
    H   1.0     0.863389     0.934718     0.502745  Biso 1.000000     H
    H   1.0     0.009134     0.295937     0.070189  Biso 1.000000     H
    H   1.0     0.558264     0.583647     0.628186  Biso 1.000000     H
    H   1.0     0.408695     0.564721     0.692061  Biso 1.000000     H
    H   1.0     0.512651     0.863061     0.759283  Biso 1.000000     H
    H   1.0     0.651670     0.870861     0.691102  Biso 1.000000     H
    H   1.0     0.327701     0.857400     0.780221  Biso 1.000000     H
    H   1.0     0.416158     0.794184     0.825943  Biso 1.000000     H
    H   1.0     0.174397     0.904887     0.845048  Biso 1.000000     H
    H   1.0     0.156646     0.814119     0.897240  Biso 1.000000     H
    H   1.0     0.111560     0.079935     0.012776  Biso 1.000000     H
    H   1.0     0.116806     0.945622     0.941651  Biso 1.000000     H
    H   1.0     0.456839     0.002253     0.932290  Biso 1.000000     H
    H   1.0     0.434695     0.136635     0.002755  Biso 1.000000     H
    H   1.0     0.795967     0.990833     0.570223  Biso 1.000000     H
    H   1.0     0.941761     0.916395     0.628181  Biso 1.000000     H
    H   1.0     0.091309     0.935326     0.692057  Biso 1.000000     H
    H   1.0     0.987371     0.636987     0.759281  Biso 1.000000     H
    H   1.0     0.848355     0.629183     0.691098  Biso 1.000000     H
    H   1.0     0.172300     0.642651     0.780221  Biso 1.000000     H
    H   1.0     0.083842     0.705868     0.825942  Biso 1.000000     H
    H   1.0     0.325605     0.595166     0.845049  Biso 1.000000     H
    H   1.0     0.343352     0.685934     0.897241  Biso 1.000000     H
    H   1.0     0.388438     0.420096     0.012783  Biso 1.000000     H
    H   1.0     0.383191     0.554442     0.941658  Biso 1.000000     H
    H   1.0     0.043172     0.497745     0.932283  Biso 1.000000     H
    H   1.0     0.065310     0.363368     0.002747  Biso 1.000000     H
    H   1.0     0.704047     0.509212     0.570224  Biso 1.000000     H
    C   1.0     0.855457     0.543655     0.842590  Biso 1.000000     C
    C   1.0     0.866837     0.461917     0.806952  Biso 1.000000     C
    C   1.0     0.787113     0.447589     0.769413  Biso 1.000000     C
    C   1.0     0.700267     0.517630     0.769369  Biso 1.000000     C
    C   1.0     0.696232     0.596586     0.807252  Biso 1.000000     C
    C   1.0     0.716729     0.345697     0.698868  Biso 1.000000     C
    C   1.0     0.656619     0.214092     0.631536  Biso 1.000000     C
    C   1.0     0.440319     0.186553     0.506369  Biso 1.000000     C
    C   1.0     0.515083     0.189995     0.546228  Biso 1.000000     C
    C   1.0     0.537947     0.289081     0.568644  Biso 1.000000     C
    C   1.0     0.482863     0.379034     0.550645  Biso 1.000000     C
    C   1.0     0.408946     0.366582     0.511297  Biso 1.000000     C
    C   1.0     0.644565     0.956403     0.842594  Biso 1.000000     C
    C   1.0     0.633194     0.038104     0.806956  Biso 1.000000     C
    C   1.0     0.712912     0.052425     0.769414  Biso 1.000000     C
    C   1.0     0.799745     0.982414     0.769366  Biso 1.000000     C
    C   1.0     0.803779     0.903458     0.807249  Biso 1.000000     C
    C   1.0     0.783295     0.154314     0.698867  Biso 1.000000     C
    C   1.0     0.843407     0.285920     0.631536  Biso 1.000000     C
    C   1.0     0.059686     0.313456     0.506368  Biso 1.000000     C
    C   1.0     0.984940     0.310015     0.546227  Biso 1.000000     C
    C   1.0     0.962076     0.210930     0.568643  Biso 1.000000     C
    C   1.0     0.017141     0.120976     0.550644  Biso 1.000000     C
    C   1.0     0.091058     0.133427     0.511297  Biso 1.000000     C
    C   1.0     0.456441     0.355417     0.342582  Biso 1.000000     C
    C   1.0     0.538167     0.366806     0.306947  Biso 1.000000     C
    C   1.0     0.552457     0.287122     0.269377  Biso 1.000000     C
    C   1.0     0.482396     0.200308     0.269301  Biso 1.000000     C
    C   1.0     0.403450     0.196263     0.307183  Biso 1.000000     C
    C   1.0     0.654343     0.216734     0.198828  Biso 1.000000     C
    C   1.0     0.785920     0.156588     0.131497  Biso 1.000000     C
    C   1.0     0.813412     0.940308     0.006326  Biso 1.000000     C
    C   1.0     0.809986     0.015032     0.046191  Biso 1.000000     C
    C   1.0     0.710921     0.037903     0.068619  Biso 1.000000     C
    C   1.0     0.620974     0.982860     0.050628  Biso 1.000000     C
    C   1.0     0.633420     0.908943     0.011274  Biso 1.000000     C
    C   1.0     0.043571     0.144592     0.342578  Biso 1.000000     C
    C   1.0     0.961861     0.133206     0.306943  Biso 1.000000     C
    C   1.0     0.947569     0.212893     0.269375  Biso 1.000000     C
    C   1.0     0.017612     0.299707     0.269300  Biso 1.000000     C
    C   1.0     0.096559     0.303749     0.307181  Biso 1.000000     C
    C   1.0     0.845678     0.283284     0.198827  Biso 1.000000     C
    C   1.0     0.714100     0.343431     0.131497  Biso 1.000000     C
    C   1.0     0.686599     0.559753     0.006329  Biso 1.000000     C
    C   1.0     0.690032     0.484992     0.046194  Biso 1.000000     C
    C   1.0     0.789099     0.462113     0.068618  Biso 1.000000     C
    C   1.0     0.879040     0.517186     0.050624  Biso 1.000000     C
    C   1.0     0.866593     0.591102     0.011270  Biso 1.000000     C
    C   1.0     0.750013     0.250006     0.665564  Biso 1.000000     C
    C   1.0     0.750010     0.250010     0.165522  Biso 1.000000     C
    C   1.0     0.144556     0.456382     0.157426  Biso 1.000000     C
    C   1.0     0.133176     0.538120     0.193064  Biso 1.000000     C
    C   1.0     0.212897     0.552442     0.230604  Biso 1.000000     C
    C   1.0     0.299739     0.482396     0.230653  Biso 1.000000     C
    C   1.0     0.303773     0.403440     0.192770  Biso 1.000000     C
    C   1.0     0.283281     0.654341     0.301153  Biso 1.000000     C
    C   1.0     0.343400     0.785940     0.368484  Biso 1.000000     C
    C   1.0     0.559690     0.813475     0.493651  Biso 1.000000     C
    C   1.0     0.484931     0.810035     0.453790  Biso 1.000000     C
    C   1.0     0.462062     0.710949     0.431375  Biso 1.000000     C
    C   1.0     0.517147     0.620996     0.449373  Biso 1.000000     C
    C   1.0     0.591059     0.633447     0.488722  Biso 1.000000     C
    C   1.0     0.355449     0.043638     0.157428  Biso 1.000000     C
    C   1.0     0.366822     0.961938     0.193066  Biso 1.000000     C
    C   1.0     0.287099     0.947610     0.230604  Biso 1.000000     C
    C   1.0     0.200260     0.017613     0.230650  Biso 1.000000     C
    C   1.0     0.196224     0.096568     0.192767  Biso 1.000000     C
    C   1.0     0.216716     0.845712     0.301152  Biso 1.000000     C
    C   1.0     0.156601     0.714111     0.368483  Biso 1.000000     C
    C   1.0     0.940320     0.686571     0.493648  Biso 1.000000     C
    C   1.0     0.015063     0.690013     0.453787  Biso 1.000000     C
    C   1.0     0.037934     0.789100     0.431374  Biso 1.000000     C
    C   1.0     0.982864     0.879052     0.449372  Biso 1.000000     C
    C   1.0     0.908951     0.866600     0.488721  Biso 1.000000     C
    C   1.0     0.543577     0.644609     0.657440  Biso 1.000000     C
    C   1.0     0.461851     0.633222     0.693075  Biso 1.000000     C
    C   1.0     0.447559     0.712909     0.730643  Biso 1.000000     C
    C   1.0     0.517620     0.799723     0.730719  Biso 1.000000     C
    C   1.0     0.596566     0.803765     0.692838  Biso 1.000000     C
    C   1.0     0.345665     0.783300     0.801191  Biso 1.000000     C
    C   1.0     0.214090     0.843450     0.868521  Biso 1.000000     C
    C   1.0     0.186597     0.059731     0.993690  Biso 1.000000     C
    C   1.0     0.190022     0.985011     0.953824  Biso 1.000000     C
    C   1.0     0.289089     0.962128     0.931400  Biso 1.000000     C
    C   1.0     0.379037     0.017166     0.949394  Biso 1.000000     C
    C   1.0     0.366591     0.091079     0.988750  Biso 1.000000     C
    C   1.0     0.956447     0.855435     0.657436  Biso 1.000000     C
    C   1.0     0.038155     0.866824     0.693072  Biso 1.000000     C
    C   1.0     0.052446     0.787139     0.730641  Biso 1.000000     C
    C   1.0     0.982403     0.700324     0.730717  Biso 1.000000     C
    C   1.0     0.903458     0.696279     0.692834  Biso 1.000000     C
    C   1.0     0.154336     0.716751     0.801191  Biso 1.000000     C
    C   1.0     0.285910     0.656602     0.868522  Biso 1.000000     C
    C   1.0     0.313409     0.440289     0.993694  Biso 1.000000     C
    C   1.0     0.309976     0.515047     0.953827  Biso 1.000000     C
    C   1.0     0.210911     0.537921     0.931400  Biso 1.000000     C
    C   1.0     0.120972     0.482839     0.949390  Biso 1.000000     C
    C   1.0     0.133418     0.408926     0.988746  Biso 1.000000     C
    C   1.0     0.250001     0.750028     0.334461  Biso 1.000000     C
    C   1.0     0.250000     0.750026     0.834499  Biso 1.000000     C
    N   1.0     0.771379     0.610263     0.843648  Biso 1.000000     N
    N   1.0     0.387546     0.272344     0.488545  Biso 1.000000     N
    N   1.0     0.728638     0.889788     0.843649  Biso 1.000000     N
    N   1.0     0.112459     0.227665     0.488544  Biso 1.000000     N
    N   1.0     0.389810     0.271369     0.343610  Biso 1.000000     N
    N   1.0     0.727638     0.887537     0.988526  Biso 1.000000     N
    N   1.0     0.110202     0.228640     0.343606  Biso 1.000000     N
    N   1.0     0.772379     0.612511     0.988525  Biso 1.000000     N
    N   1.0     0.228630     0.389769     0.156371  Biso 1.000000     N
    N   1.0     0.612460     0.727683     0.511477  Biso 1.000000     N
    N   1.0     0.271370     0.110245     0.156370  Biso 1.000000     N
    N   1.0     0.887551     0.772363     0.511474  Biso 1.000000     N
    N   1.0     0.610208     0.728657     0.656412  Biso 1.000000     N
    N   1.0     0.272372     0.112492     0.011495  Biso 1.000000     N
    N   1.0     0.889817     0.771386     0.656408  Biso 1.000000     N
    N   1.0     0.227629     0.387527     0.011495  Biso 1.000000     N
    O   1.0     0.800892     0.365808     0.735754  Biso 1.000000     O
    O   1.0     0.610396     0.306231     0.606810  Biso 1.000000     O
    O   1.0     0.699134     0.134206     0.735755  Biso 1.000000     O
    O   1.0     0.889630     0.193781     0.606811  Biso 1.000000     O
    O   1.0     0.634228     0.300898     0.235723  Biso 1.000000     O
    O   1.0     0.693786     0.110357     0.106791  Biso 1.000000     O
    O   1.0     0.865795     0.199119     0.235721  Biso 1.000000     O
    O   1.0     0.806235     0.389660     0.106791  Biso 1.000000     O
    O   1.0     0.199124     0.634226     0.264263  Biso 1.000000     O
    O   1.0     0.389618     0.693797     0.393208  Biso 1.000000     O
    O   1.0     0.300875     0.865827     0.264263  Biso 1.000000     O
    O   1.0     0.110382     0.806252     0.393208  Biso 1.000000     O
    O   1.0     0.365784     0.699137     0.764296  Biso 1.000000     O
    O   1.0     0.306226     0.889675     0.893228  Biso 1.000000     O
    O   1.0     0.134217     0.800913     0.764296  Biso 1.000000     O
    O   1.0     0.193774     0.610375     0.893228  Biso 1.000000     O
    S   1.0     0.550175     0.706945     0.908271  Biso 1.000000     S
    S   1.0     0.949841     0.793107     0.908268  Biso 1.000000     S
    S   1.0     0.293072     0.050186     0.408259  Biso 1.000000     S
    S   1.0     0.206933     0.449824     0.408259  Biso 1.000000     S
    S   1.0     0.449833     0.293092     0.091751  Biso 1.000000     S
    S   1.0     0.050167     0.206929     0.091747  Biso 1.000000     S
    S   1.0     0.706939     0.949842     0.591760  Biso 1.000000     S
    S   1.0     0.793077     0.550202     0.591758  Biso 1.000000     S
   Cd   1.0     0.750009     0.750024     0.916251  Biso 1.000000    Cd
   Cd   1.0     0.250003     0.250005     0.416244  Biso 1.000000    Cd
   Cd   1.0     0.250001     0.250008     0.083767  Biso 1.000000    Cd
   Cd   1.0     0.750008     0.750022     0.583774  Biso 1.000000    Cd
