#======================================================================

# CRYSTAL DATA

#----------------------------------------------------------------------

data_VESTA_phase_1


_pd_phase_name                         MOF
_cell_length_a                         14.03900
_cell_length_b                         17.60100
_cell_length_c                         19.95400
_cell_angle_alpha                      102.06400
_cell_angle_beta                       104.57900
_cell_angle_gamma                      83.83000
_symmetry_space_group_name_H-M         "P 1"
_symmetry_Int_Tables_number            1

loop_
_symmetry_equiv_pos_as_xyz
   "x, y, z"

loop_
   _atom_site_label
   _atom_site_occupancy
   _atom_site_fract_x
   _atom_site_fract_y
   _atom_site_fract_z
   _atom_site_adp_type
   _atom_site_B_iso_or_equiv
   _atom_site_type_symbol
    H   1.0     0.092106     0.280556     0.466204  Biso 1.000000     H
    H   1.0     0.092102     0.280557     0.966206  Biso 1.000000     H
    H   1.0     0.092094     0.780558     0.466196  Biso 1.000000     H
    H   1.0     0.092089     0.780555     0.966197  Biso 1.000000     H
    H   1.0     0.592815     0.280725     0.466635  Biso 1.000000     H
    H   1.0     0.592809     0.280725     0.966636  Biso 1.000000     H
    H   1.0     0.592796     0.780733     0.466630  Biso 1.000000     H
    H   1.0     0.592795     0.780730     0.966632  Biso 1.000000     H
    H   1.0     0.323374     0.424104     0.096957  Biso 1.000000     H
    H   1.0     0.323369     0.424104     0.596955  Biso 1.000000     H
    H   1.0     0.323349     0.924109     0.096956  Biso 1.000000     H
    H   1.0     0.323357     0.924102     0.596954  Biso 1.000000     H
    H   1.0     0.824582     0.424103     0.096820  Biso 1.000000     H
    H   1.0     0.824581     0.424103     0.596818  Biso 1.000000     H
    H   1.0     0.824577     0.924096     0.096821  Biso 1.000000     H
    H   1.0     0.824575     0.924094     0.596819  Biso 1.000000     H
    H   1.0     0.362020     0.452576     0.490530  Biso 1.000000     H
    H   1.0     0.362020     0.452571     0.990528  Biso 1.000000     H
    H   1.0     0.362015     0.952575     0.490532  Biso 1.000000     H
    H   1.0     0.362004     0.952576     0.990530  Biso 1.000000     H
    H   1.0     0.862521     0.452666     0.490132  Biso 1.000000     H
    H   1.0     0.862519     0.452661     0.990130  Biso 1.000000     H
    H   1.0     0.862528     0.952653     0.490136  Biso 1.000000     H
    H   1.0     0.862525     0.952650     0.990132  Biso 1.000000     H
    H   1.0     0.408725     0.219442     0.033309  Biso 1.000000     H
    H   1.0     0.408725     0.219441     0.533312  Biso 1.000000     H
    H   1.0     0.408722     0.719449     0.033309  Biso 1.000000     H
    H   1.0     0.408720     0.719446     0.533311  Biso 1.000000     H
    H   1.0     0.908677     0.219502     0.033289  Biso 1.000000     H
    H   1.0     0.908678     0.219499     0.533292  Biso 1.000000     H
    H   1.0     0.908671     0.719504     0.033282  Biso 1.000000     H
    H   1.0     0.908667     0.719502     0.533282  Biso 1.000000     H
    H   1.0     0.177523     0.075960     0.402411  Biso 1.000000     H
    H   1.0     0.177514     0.075962     0.902407  Biso 1.000000     H
    H   1.0     0.177527     0.575958     0.402408  Biso 1.000000     H
    H   1.0     0.177526     0.575956     0.902406  Biso 1.000000     H
    H   1.0     0.677617     0.075919     0.402301  Biso 1.000000     H
    H   1.0     0.677613     0.075917     0.902298  Biso 1.000000     H
    H   1.0     0.677605     0.575923     0.402292  Biso 1.000000     H
    H   1.0     0.677606     0.575920     0.902290  Biso 1.000000     H
    H   1.0     0.138707     0.047408     0.008779  Biso 1.000000     H
    H   1.0     0.138713     0.047399     0.508778  Biso 1.000000     H
    H   1.0     0.138718     0.547400     0.008777  Biso 1.000000     H
    H   1.0     0.138714     0.547398     0.508774  Biso 1.000000     H
    H   1.0     0.638743     0.047327     0.008644  Biso 1.000000     H
    H   1.0     0.638743     0.047323     0.508642  Biso 1.000000     H
    H   1.0     0.638733     0.547333     0.008636  Biso 1.000000     H
    H   1.0     0.638728     0.547331     0.508632  Biso 1.000000     H
    C   1.0     0.246355     0.385321     0.418023  Biso 1.000000     C
    C   1.0     0.246351     0.385318     0.918022  Biso 1.000000     C
    C   1.0     0.246351     0.885321     0.418022  Biso 1.000000     C
    C   1.0     0.246344     0.885317     0.918020  Biso 1.000000     C
    C   1.0     0.746648     0.385368     0.417937  Biso 1.000000     C
    C   1.0     0.746644     0.385363     0.917936  Biso 1.000000     C
    C   1.0     0.746651     0.885362     0.417939  Biso 1.000000     C
    C   1.0     0.746646     0.885358     0.917937  Biso 1.000000     C
    C   1.0     0.171965     0.334305     0.411227  Biso 1.000000     C
    C   1.0     0.171962     0.334302     0.911228  Biso 1.000000     C
    C   1.0     0.171963     0.834302     0.411223  Biso 1.000000     C
    C   1.0     0.171956     0.834299     0.911222  Biso 1.000000     C
    C   1.0     0.672300     0.334397     0.411345  Biso 1.000000     C
    C   1.0     0.672295     0.334394     0.911345  Biso 1.000000     C
    C   1.0     0.672298     0.834394     0.411342  Biso 1.000000     C
    C   1.0     0.672294     0.834390     0.911342  Biso 1.000000     C
    C   1.0     0.148916     0.320362     0.471454  Biso 1.000000     C
    C   1.0     0.148914     0.320360     0.971455  Biso 1.000000     C
    C   1.0     0.148903     0.820364     0.471448  Biso 1.000000     C
    C   1.0     0.148899     0.820360     0.971448  Biso 1.000000     C
    C   1.0     0.649625     0.320465     0.471703  Biso 1.000000     C
    C   1.0     0.649621     0.320463     0.971704  Biso 1.000000     C
    C   1.0     0.649611     0.820468     0.471699  Biso 1.000000     C
    C   1.0     0.649610     0.820465     0.971700  Biso 1.000000     C
    C   1.0     0.200762     0.354908     0.038894  Biso 1.000000     C
    C   1.0     0.200760     0.354903     0.538890  Biso 1.000000     C
    C   1.0     0.200746     0.854906     0.038888  Biso 1.000000     C
    C   1.0     0.200751     0.854901     0.538886  Biso 1.000000     C
    C   1.0     0.701857     0.354961     0.039029  Biso 1.000000     C
    C   1.0     0.701861     0.354956     0.539026  Biso 1.000000     C
    C   1.0     0.701848     0.854961     0.039026  Biso 1.000000     C
    C   1.0     0.701846     0.854958     0.539023  Biso 1.000000     C
    C   1.0     0.280035     0.399758     0.045019  Biso 1.000000     C
    C   1.0     0.280033     0.399755     0.545017  Biso 1.000000     C
    C   1.0     0.280016     0.899761     0.045016  Biso 1.000000     C
    C   1.0     0.280022     0.899755     0.545015  Biso 1.000000     C
    C   1.0     0.781051     0.399801     0.044937  Biso 1.000000     C
    C   1.0     0.781054     0.399797     0.544934  Biso 1.000000     C
    C   1.0     0.781048     0.899795     0.044937  Biso 1.000000     C
    C   1.0     0.781047     0.899791     0.544935  Biso 1.000000     C
    C   1.0     0.302378     0.415223     0.485002  Biso 1.000000     C
    C   1.0     0.302379     0.415218     0.985000  Biso 1.000000     C
    C   1.0     0.302373     0.915221     0.485002  Biso 1.000000     C
    C   1.0     0.302365     0.915220     0.984999  Biso 1.000000     C
    C   1.0     0.802971     0.415301     0.484803  Biso 1.000000     C
    C   1.0     0.802969     0.415296     0.984802  Biso 1.000000     C
    C   1.0     0.802975     0.915290     0.484805  Biso 1.000000     C
    C   1.0     0.802972     0.915287     0.984802  Biso 1.000000     C
    C   1.0     0.261172     0.413230     0.355303  Biso 1.000000     C
    C   1.0     0.261169     0.413228     0.855304  Biso 1.000000     C
    C   1.0     0.261170     0.913224     0.355302  Biso 1.000000     C
    C   1.0     0.261164     0.913223     0.855302  Biso 1.000000     C
    C   1.0     0.761216     0.413266     0.355167  Biso 1.000000     C
    C   1.0     0.761212     0.413264     0.855168  Biso 1.000000     C
    C   1.0     0.761219     0.913259     0.355170  Biso 1.000000     C
    C   1.0     0.761214     0.913256     0.855169  Biso 1.000000     C
    C   1.0     0.127841     0.288233     0.340407  Biso 1.000000     C
    C   1.0     0.127837     0.288230     0.840408  Biso 1.000000     C
    C   1.0     0.127841     0.788233     0.340401  Biso 1.000000     C
    C   1.0     0.127838     0.788228     0.840401  Biso 1.000000     C
    C   1.0     0.627928     0.288262     0.340606  Biso 1.000000     C
    C   1.0     0.627924     0.288260     0.840606  Biso 1.000000     C
    C   1.0     0.627929     0.788261     0.340602  Biso 1.000000     C
    C   1.0     0.627925     0.788257     0.840602  Biso 1.000000     C
    C   1.0     0.174451     0.339334     0.103201  Biso 1.000000     C
    C   1.0     0.174453     0.339329     0.603199  Biso 1.000000     C
    C   1.0     0.174439     0.839329     0.103195  Biso 1.000000     C
    C   1.0     0.174441     0.839326     0.603193  Biso 1.000000     C
    C   1.0     0.676126     0.339491     0.103558  Biso 1.000000     C
    C   1.0     0.676128     0.339487     0.603555  Biso 1.000000     C
    C   1.0     0.676108     0.839497     0.103554  Biso 1.000000     C
    C   1.0     0.676105     0.839495     0.603551  Biso 1.000000     C
    C   1.0     0.254272     0.114704     0.081333  Biso 1.000000     C
    C   1.0     0.254273     0.114698     0.581333  Biso 1.000000     C
    C   1.0     0.254277     0.614702     0.081332  Biso 1.000000     C
    C   1.0     0.254273     0.614698     0.581331  Biso 1.000000     C
    C   1.0     0.754213     0.114702     0.081228  Biso 1.000000     C
    C   1.0     0.754212     0.114698     0.581227  Biso 1.000000     C
    C   1.0     0.754206     0.614706     0.081220  Biso 1.000000     C
    C   1.0     0.754199     0.614702     0.581218  Biso 1.000000     C
    C   1.0     0.328748     0.165672     0.088224  Biso 1.000000     C
    C   1.0     0.328747     0.165669     0.588225  Biso 1.000000     C
    C   1.0     0.328746     0.665676     0.088222  Biso 1.000000     C
    C   1.0     0.328743     0.665671     0.588222  Biso 1.000000     C
    C   1.0     0.828650     0.165712     0.088153  Biso 1.000000     C
    C   1.0     0.828650     0.165706     0.588154  Biso 1.000000     C
    C   1.0     0.828640     0.665716     0.088145  Biso 1.000000     C
    C   1.0     0.828635     0.665713     0.588144  Biso 1.000000     C
    C   1.0     0.351881     0.179656     0.028036  Biso 1.000000     C
    C   1.0     0.351884     0.179652     0.528039  Biso 1.000000     C
    C   1.0     0.351883     0.679658     0.028035  Biso 1.000000     C
    C   1.0     0.351880     0.679657     0.528036  Biso 1.000000     C
    C   1.0     0.851850     0.179690     0.027988  Biso 1.000000     C
    C   1.0     0.851852     0.179686     0.527990  Biso 1.000000     C
    C   1.0     0.851843     0.679693     0.027980  Biso 1.000000     C
    C   1.0     0.851840     0.679689     0.527980  Biso 1.000000     C
    C   1.0     0.300057     0.145129     0.460596  Biso 1.000000     C
    C   1.0     0.300054     0.145126     0.960592  Biso 1.000000     C
    C   1.0     0.300057     0.645130     0.460594  Biso 1.000000     C
    C   1.0     0.300055     0.645129     0.960590  Biso 1.000000     C
    C   1.0     0.800071     0.145151     0.460537  Biso 1.000000     C
    C   1.0     0.800068     0.145148     0.960533  Biso 1.000000     C
    C   1.0     0.800060     0.645154     0.460528  Biso 1.000000     C
    C   1.0     0.800061     0.645150     0.960526  Biso 1.000000     C
    C   1.0     0.220773     0.100270     0.454384  Biso 1.000000     C
    C   1.0     0.220766     0.100271     0.954381  Biso 1.000000     C
    C   1.0     0.220774     0.600271     0.454382  Biso 1.000000     C
    C   1.0     0.220776     0.600265     0.954380  Biso 1.000000     C
    C   1.0     0.720817     0.100241     0.454288  Biso 1.000000     C
    C   1.0     0.720816     0.100237     0.954285  Biso 1.000000     C
    C   1.0     0.720807     0.600244     0.454279  Biso 1.000000     C
    C   1.0     0.720808     0.600240     0.954278  Biso 1.000000     C
    C   1.0     0.198355     0.084762     0.014340  Biso 1.000000     C
    C   1.0     0.198359     0.084755     0.514339  Biso 1.000000     C
    C   1.0     0.198363     0.584757     0.014339  Biso 1.000000     C
    C   1.0     0.198360     0.584755     0.514336  Biso 1.000000     C
    C   1.0     0.698353     0.084727     0.014226  Biso 1.000000     C
    C   1.0     0.698355     0.084722     0.514225  Biso 1.000000     C
    C   1.0     0.698344     0.584732     0.014218  Biso 1.000000     C
    C   1.0     0.698341     0.584728     0.514215  Biso 1.000000     C
    C   1.0     0.239108     0.086844     0.143951  Biso 1.000000     C
    C   1.0     0.239109     0.086841     0.643953  Biso 1.000000     C
    C   1.0     0.239112     0.586843     0.143951  Biso 1.000000     C
    C   1.0     0.239106     0.586838     0.643949  Biso 1.000000     C
    C   1.0     0.739076     0.086866     0.143859  Biso 1.000000     C
    C   1.0     0.739075     0.086864     0.643861  Biso 1.000000     C
    C   1.0     0.739066     0.586868     0.143851  Biso 1.000000     C
    C   1.0     0.739063     0.586869     0.643853  Biso 1.000000     C
    C   1.0     0.372637     0.211792     0.159062  Biso 1.000000     C
    C   1.0     0.372636     0.211788     0.659063  Biso 1.000000     C
    C   1.0     0.372638     0.711792     0.159061  Biso 1.000000     C
    C   1.0     0.372633     0.711789     0.659061  Biso 1.000000     C
    C   1.0     0.872517     0.211795     0.159012  Biso 1.000000     C
    C   1.0     0.872514     0.211792     0.659013  Biso 1.000000     C
    C   1.0     0.872515     0.711794     0.159004  Biso 1.000000     C
    C   1.0     0.872511     0.711791     0.659003  Biso 1.000000     C
    C   1.0     0.326103     0.160762     0.396243  Biso 1.000000     C
    C   1.0     0.326101     0.160758     0.896240  Biso 1.000000     C
    C   1.0     0.326105     0.660759     0.396241  Biso 1.000000     C
    C   1.0     0.326105     0.660756     0.896238  Biso 1.000000     C
    C   1.0     0.826173     0.160768     0.396202  Biso 1.000000     C
    C   1.0     0.826173     0.160763     0.896199  Biso 1.000000     C
    C   1.0     0.826171     0.660764     0.396194  Biso 1.000000     C
    C   1.0     0.826175     0.660759     0.896193  Biso 1.000000     C
    O   1.0     0.341165     0.396885     0.334188  Biso 1.000000     O
    O   1.0     0.341163     0.396883     0.834188  Biso 1.000000     O
    O   1.0     0.341166     0.896884     0.334189  Biso 1.000000     O
    O   1.0     0.341160     0.896883     0.834190  Biso 1.000000     O
    O   1.0     0.841217     0.396960     0.334021  Biso 1.000000     O
    O   1.0     0.841214     0.396957     0.834022  Biso 1.000000     O
    O   1.0     0.841220     0.896957     0.334023  Biso 1.000000     O
    O   1.0     0.841216     0.896954     0.834023  Biso 1.000000     O
    O   1.0     0.192604     0.459260     0.328181  Biso 1.000000     O
    O   1.0     0.192599     0.459256     0.828180  Biso 1.000000     O
    O   1.0     0.192599     0.959253     0.328179  Biso 1.000000     O
    O   1.0     0.192593     0.959251     0.828178  Biso 1.000000     O
    O   1.0     0.692636     0.459269     0.328047  Biso 1.000000     O
    O   1.0     0.692631     0.459265     0.828046  Biso 1.000000     O
    O   1.0     0.692636     0.959259     0.328050  Biso 1.000000     O
    O   1.0     0.692630     0.959256     0.828049  Biso 1.000000     O
    O   1.0     0.179650     0.283401     0.294376  Biso 1.000000     O
    O   1.0     0.179645     0.283398     0.794377  Biso 1.000000     O
    O   1.0     0.179659     0.783396     0.294375  Biso 1.000000     O
    O   1.0     0.179654     0.783393     0.794374  Biso 1.000000     O
    O   1.0     0.679516     0.283406     0.294430  Biso 1.000000     O
    O   1.0     0.679512     0.283402     0.794430  Biso 1.000000     O
    O   1.0     0.679524     0.783400     0.294429  Biso 1.000000     O
    O   1.0     0.679519     0.783396     0.794428  Biso 1.000000     O
    O   1.0     0.049983     0.253116     0.328390  Biso 1.000000     O
    O   1.0     0.049981     0.253112     0.828393  Biso 1.000000     O
    O   1.0     0.049983     0.753115     0.328377  Biso 1.000000     O
    O   1.0     0.049978     0.753111     0.828376  Biso 1.000000     O
    O   1.0     0.550111     0.253173     0.328854  Biso 1.000000     O
    O   1.0     0.550109     0.253168     0.828857  Biso 1.000000     O
    O   1.0     0.550111     0.753171     0.328843  Biso 1.000000     O
    O   1.0     0.550107     0.753167     0.828846  Biso 1.000000     O
    O   1.0     0.121537     0.280283     0.091045  Biso 1.000000     O
    O   1.0     0.121534     0.280280     0.591042  Biso 1.000000     O
    O   1.0     0.121524     0.780279     0.091038  Biso 1.000000     O
    O   1.0     0.121525     0.780276     0.591036  Biso 1.000000     O
    O   1.0     0.622224     0.281058     0.091576  Biso 1.000000     O
    O   1.0     0.622232     0.281050     0.591573  Biso 1.000000     O
    O   1.0     0.622185     0.781076     0.091572  Biso 1.000000     O
    O   1.0     0.622178     0.781076     0.591569  Biso 1.000000     O
    O   1.0     0.204567     0.380178     0.163749  Biso 1.000000     O
    O   1.0     0.204564     0.380176     0.663745  Biso 1.000000     O
    O   1.0     0.204560     0.880170     0.163744  Biso 1.000000     O
    O   1.0     0.204562     0.880168     0.663741  Biso 1.000000     O
    O   1.0     0.707780     0.379918     0.164058  Biso 1.000000     O
    O   1.0     0.707780     0.379915     0.664055  Biso 1.000000     O
    O   1.0     0.707785     0.879911     0.164057  Biso 1.000000     O
    O   1.0     0.707782     0.879908     0.664054  Biso 1.000000     O
    O   1.0     0.158856     0.103164     0.164699  Biso 1.000000     O
    O   1.0     0.158856     0.103160     0.664700  Biso 1.000000     O
    O   1.0     0.158857     0.603161     0.164696  Biso 1.000000     O
    O   1.0     0.158853     0.603159     0.664696  Biso 1.000000     O
    O   1.0     0.658806     0.103149     0.164582  Biso 1.000000     O
    O   1.0     0.658804     0.103144     0.664582  Biso 1.000000     O
    O   1.0     0.658796     0.603152     0.164574  Biso 1.000000     O
    O   1.0     0.658791     0.603148     0.664572  Biso 1.000000     O
    O   1.0     0.307609     0.040904     0.171297  Biso 1.000000     O
    O   1.0     0.307607     0.040899     0.671297  Biso 1.000000     O
    O   1.0     0.307609     0.540900     0.171296  Biso 1.000000     O
    O   1.0     0.307604     0.540898     0.671296  Biso 1.000000     O
    O   1.0     0.807677     0.041024     0.171224  Biso 1.000000     O
    O   1.0     0.807675     0.041019     0.671224  Biso 1.000000     O
    O   1.0     0.807667     0.541026     0.171218  Biso 1.000000     O
    O   1.0     0.807661     0.541023     0.671216  Biso 1.000000     O
    O   1.0     0.320656     0.216609     0.204997  Biso 1.000000     O
    O   1.0     0.320653     0.216605     0.704997  Biso 1.000000     O
    O   1.0     0.320658     0.716605     0.204996  Biso 1.000000     O
    O   1.0     0.320653     0.716601     0.704996  Biso 1.000000     O
    O   1.0     0.820603     0.216525     0.204975  Biso 1.000000     O
    O   1.0     0.820600     0.216521     0.704975  Biso 1.000000     O
    O   1.0     0.820605     0.716523     0.204969  Biso 1.000000     O
    O   1.0     0.820601     0.716520     0.704968  Biso 1.000000     O
    O   1.0     0.450538     0.246912     0.171232  Biso 1.000000     O
    O   1.0     0.450537     0.246910     0.671237  Biso 1.000000     O
    O   1.0     0.450536     0.746915     0.171231  Biso 1.000000     O
    O   1.0     0.450532     0.746912     0.671234  Biso 1.000000     O
    O   1.0     0.950354     0.246979     0.171161  Biso 1.000000     O
    O   1.0     0.950354     0.246974     0.671166  Biso 1.000000     O
    O   1.0     0.950351     0.746978     0.171147  Biso 1.000000     O
    O   1.0     0.950347     0.746975     0.671147  Biso 1.000000     O
    O   1.0     0.378965     0.219827     0.408320  Biso 1.000000     O
    O   1.0     0.378963     0.219824     0.908318  Biso 1.000000     O
    O   1.0     0.378968     0.719824     0.408317  Biso 1.000000     O
    O   1.0     0.378968     0.719820     0.908315  Biso 1.000000     O
    O   1.0     0.878992     0.219857     0.408275  Biso 1.000000     O
    O   1.0     0.878990     0.219854     0.908272  Biso 1.000000     O
    O   1.0     0.878993     0.719851     0.408268  Biso 1.000000     O
    O   1.0     0.878992     0.719849     0.908266  Biso 1.000000     O
    O   1.0     0.295737     0.119892     0.335749  Biso 1.000000     O
    O   1.0     0.295736     0.119889     0.835746  Biso 1.000000     O
    O   1.0     0.295740     0.619887     0.335748  Biso 1.000000     O
    O   1.0     0.295739     0.619884     0.835745  Biso 1.000000     O
    O   1.0     0.795829     0.119882     0.335710  Biso 1.000000     O
    O   1.0     0.795827     0.119880     0.835706  Biso 1.000000     O
    O   1.0     0.795830     0.619876     0.335702  Biso 1.000000     O
    O   1.0     0.795829     0.619874     0.835700  Biso 1.000000     O
   Cd   1.0     0.384560     0.265006     0.315845  Biso 1.000000    Cd
   Cd   1.0     0.384557     0.265004     0.815843  Biso 1.000000    Cd
   Cd   1.0     0.384562     0.765005     0.315843  Biso 1.000000    Cd
   Cd   1.0     0.384557     0.765004     0.815841  Biso 1.000000    Cd
   Cd   1.0     0.884515     0.265072     0.315782  Biso 1.000000    Cd
   Cd   1.0     0.884512     0.265070     0.815781  Biso 1.000000    Cd
   Cd   1.0     0.884517     0.765068     0.315776  Biso 1.000000    Cd
   Cd   1.0     0.884512     0.765066     0.815774  Biso 1.000000    Cd
   Cd   1.0     0.115801     0.235082     0.183488  Biso 1.000000    Cd
   Cd   1.0     0.115800     0.235079     0.683487  Biso 1.000000    Cd
   Cd   1.0     0.115802     0.735079     0.183487  Biso 1.000000    Cd
   Cd   1.0     0.115797     0.735077     0.683484  Biso 1.000000    Cd
   Cd   1.0     0.616067     0.235040     0.183492  Biso 1.000000    Cd
   Cd   1.0     0.616065     0.235037     0.683490  Biso 1.000000    Cd
   Cd   1.0     0.616063     0.735045     0.183489  Biso 1.000000    Cd
   Cd   1.0     0.616058     0.735043     0.683487  Biso 1.000000    Cd
   Cd   1.0     0.250179    -0.000017     0.249679  Biso 1.000000    Cd
   Cd   1.0     0.250176    -0.000019     0.749681  Biso 1.000000    Cd
   Cd   1.0     0.250185     0.499977     0.249681  Biso 1.000000    Cd
   Cd   1.0     0.250181     0.499974     0.749682  Biso 1.000000    Cd
   Cd   1.0     0.750977    -0.000138     0.249771  Biso 1.000000    Cd
   Cd   1.0     0.750974    -0.000141     0.749771  Biso 1.000000    Cd
   Cd   1.0     0.750977     0.499855     0.249766  Biso 1.000000    Cd
   Cd   1.0     0.750973     0.499854     0.749767  Biso 1.000000    Cd
