#======================================================================

# CRYSTAL DATA

#----------------------------------------------------------------------

data_VESTA_phase_1


_pd_phase_name                         MOF
_cell_length_a                         14.35700
_cell_length_b                         15.24300
_cell_length_c                         16.40500
_cell_angle_alpha                      89.99700
_cell_angle_beta                       90.00400
_cell_angle_gamma                      97.44900
_symmetry_space_group_name_H-M         "P 1"
_symmetry_Int_Tables_number            1

loop_
_symmetry_equiv_pos_as_xyz
   "x, y, z"

loop_
   _atom_site_label
   _atom_site_occupancy
   _atom_site_fract_x
   _atom_site_fract_y
   _atom_site_fract_z
   _atom_site_adp_type
   _atom_site_B_iso_or_equiv
   _atom_site_type_symbol
    H   1.0     0.419576     0.498684     0.463921  Biso 1.000000     H
    H   1.0     0.919600     0.498653     0.463906  Biso 1.000000     H
    H   1.0     0.204773     0.665695     0.207303  Biso 1.000000     H
    H   1.0     0.705006     0.665501     0.207333  Biso 1.000000     H
    H   1.0     0.050512     0.736244     0.225191  Biso 1.000000     H
    H   1.0     0.550372     0.735816     0.225100  Biso 1.000000     H
    H   1.0     0.330296     0.001300     0.963955  Biso 1.000000     H
    H   1.0     0.830317     0.001244     0.963928  Biso 1.000000     H
    H   1.0     0.045520     0.834665     0.707278  Biso 1.000000     H
    H   1.0     0.545387     0.835279     0.706962  Biso 1.000000     H
    H   1.0     0.199964     0.763918     0.725354  Biso 1.000000     H
    H   1.0     0.700003     0.763935     0.725302  Biso 1.000000     H
    H   1.0     0.080408     0.501341     0.536090  Biso 1.000000     H
    H   1.0     0.580431     0.501314     0.536079  Biso 1.000000     H
    H   1.0     0.295003     0.334500     0.792660  Biso 1.000000     H
    H   1.0     0.795241     0.334331     0.792706  Biso 1.000000     H
    H   1.0     0.449645     0.264179     0.774890  Biso 1.000000     H
    H   1.0     0.949498     0.263746     0.774807  Biso 1.000000     H
    H   1.0     0.169693     0.998758     0.036069  Biso 1.000000     H
    H   1.0     0.669715     0.998709     0.036041  Biso 1.000000     H
    H   1.0     0.454618     0.164712     0.293032  Biso 1.000000     H
    H   1.0     0.954492     0.165324     0.292724  Biso 1.000000     H
    H   1.0     0.300005     0.236081     0.274687  Biso 1.000000     H
    H   1.0     0.800041     0.236080     0.274646  Biso 1.000000     H
    C   1.0     0.426734     0.664872     0.280067  Biso 1.000000     C
    C   1.0     0.927000     0.665145     0.280167  Biso 1.000000     C
    C   1.0     0.328092     0.643911     0.273744  Biso 1.000000     C
    C   1.0     0.828356     0.644012     0.273852  Biso 1.000000     C
    C   1.0     0.280527     0.683087     0.212068  Biso 1.000000     C
    C   1.0     0.780741     0.683012     0.212104  Biso 1.000000     C
    C   1.0     0.327626     0.744034     0.157895  Biso 1.000000     C
    C   1.0     0.827720     0.743970     0.157880  Biso 1.000000     C
    C   1.0     0.425928     0.761879     0.161497  Biso 1.000000     C
    C   1.0     0.926010     0.761983     0.161488  Biso 1.000000     C
    C   1.0     0.474112     0.721846     0.222405  Biso 1.000000     C
    C   1.0     0.974267     0.722150     0.222472  Biso 1.000000     C
    C   1.0     0.486724     0.625337     0.342302  Biso 1.000000     C
    C   1.0     0.987147     0.625641     0.342288  Biso 1.000000     C
    C   1.0     0.268609     0.586553     0.333471  Biso 1.000000     C
    C   1.0     0.768826     0.586658     0.333571  Biso 1.000000     C
    C   1.0     0.269418     0.785012     0.096737  Biso 1.000000     C
    C   1.0     0.769375     0.784816     0.096748  Biso 1.000000     C
    C   1.0     0.479483     0.819238     0.098339  Biso 1.000000     C
    C   1.0     0.979560     0.819280     0.098293  Biso 1.000000     C
    C   1.0     0.323465     0.835386     0.780040  Biso 1.000000     C
    C   1.0     0.823547     0.835223     0.780089  Biso 1.000000     C
    C   1.0     0.422065     0.856706     0.773554  Biso 1.000000     C
    C   1.0     0.922165     0.856407     0.773674  Biso 1.000000     C
    C   1.0     0.469677     0.817622     0.711873  Biso 1.000000     C
    C   1.0     0.969784     0.817189     0.712079  Biso 1.000000     C
    C   1.0     0.422707     0.756355     0.657889  Biso 1.000000     C
    C   1.0     0.922768     0.756036     0.658024  Biso 1.000000     C
    C   1.0     0.324433     0.738119     0.661660  Biso 1.000000     C
    C   1.0     0.824474     0.738010     0.661675  Biso 1.000000     C
    C   1.0     0.276199     0.778134     0.722539  Biso 1.000000     C
    C   1.0     0.776251     0.778042     0.722549  Biso 1.000000     C
    C   1.0     0.263397     0.874948     0.842178  Biso 1.000000     C
    C   1.0     0.763512     0.874820     0.842239  Biso 1.000000     C
    C   1.0     0.481480     0.914109     0.833293  Biso 1.000000     C
    C   1.0     0.981538     0.913935     0.833347  Biso 1.000000     C
    C   1.0     0.481041     0.715385     0.596863  Biso 1.000000     C
    C   1.0     0.981059     0.715068     0.596948  Biso 1.000000     C
    C   1.0     0.270740     0.680598     0.598649  Biso 1.000000     C
    C   1.0     0.770810     0.680565     0.598607  Biso 1.000000     C
    C   1.0     0.073006     0.334849     0.719829  Biso 1.000000     C
    C   1.0     0.573282     0.335135     0.719930  Biso 1.000000     C
    C   1.0     0.171650     0.355984     0.726143  Biso 1.000000     C
    C   1.0     0.671922     0.356104     0.726259  Biso 1.000000     C
    C   1.0     0.219267     0.316986     0.787890  Biso 1.000000     C
    C   1.0     0.719488     0.316931     0.787937  Biso 1.000000     C
    C   1.0     0.172292     0.256027     0.842116  Biso 1.000000     C
    C   1.0     0.672390     0.255979     0.842106  Biso 1.000000     C
    C   1.0     0.074002     0.238011     0.838508  Biso 1.000000     C
    C   1.0     0.574089     0.238123     0.838495  Biso 1.000000     C
    C   1.0     0.025743     0.277842     0.777524  Biso 1.000000     C
    C   1.0     0.525905     0.278156     0.777589  Biso 1.000000     C
    C   1.0     0.012857     0.374352     0.657711  Biso 1.000000     C
    C   1.0     0.513293     0.374668     0.657694  Biso 1.000000     C
    C   1.0     0.231180     0.413336     0.666424  Biso 1.000000     C
    C   1.0     0.731403     0.413461     0.666531  Biso 1.000000     C
    C   1.0     0.230644     0.215186     0.903245  Biso 1.000000     C
    C   1.0     0.730600     0.215002     0.903263  Biso 1.000000     C
    C   1.0     0.020452     0.180712     0.901702  Biso 1.000000     C
    C   1.0     0.520528     0.180753     0.901644  Biso 1.000000     C
    C   1.0     0.176464     0.164786     0.219903  Biso 1.000000     C
    C   1.0     0.676543     0.164611     0.219957  Biso 1.000000     C
    C   1.0     0.077846     0.143594     0.226321  Biso 1.000000     C
    C   1.0     0.577943     0.143286     0.226442  Biso 1.000000     C
    C   1.0     0.030227     0.182805     0.287919  Biso 1.000000     C
    C   1.0     0.530328     0.182370     0.288121  Biso 1.000000     C
    C   1.0     0.077240     0.243960     0.341974  Biso 1.000000     C
    C   1.0     0.577295     0.243639     0.342106  Biso 1.000000     C
    C   1.0     0.175534     0.261992     0.338322  Biso 1.000000     C
    C   1.0     0.675569     0.261876     0.338338  Biso 1.000000     C
    C   1.0     0.223758     0.221968     0.277443  Biso 1.000000     C
    C   1.0     0.723806     0.221863     0.277459  Biso 1.000000     C
    C   1.0     0.236507     0.125198     0.157754  Biso 1.000000     C
    C   1.0     0.736613     0.125053     0.157819  Biso 1.000000     C
    C   1.0     0.018474     0.086061     0.166650  Biso 1.000000     C
    C   1.0     0.518534     0.085877     0.166703  Biso 1.000000     C
    C   1.0     0.018950     0.284929     0.403051  Biso 1.000000     C
    C   1.0     0.518961     0.284609     0.403133  Biso 1.000000     C
    C   1.0     0.229199     0.319436     0.401388  Biso 1.000000     C
    C   1.0     0.729262     0.319396     0.401350  Biso 1.000000     C
    O   1.0     0.478940     0.541182     0.347420  Biso 1.000000     O
    O   1.0     0.979135     0.541492     0.347502  Biso 1.000000     O
    O   1.0     0.045307     0.680318     0.381725  Biso 1.000000     O
    O   1.0     0.544526     0.680095     0.381982  Biso 1.000000     O
    O   1.0     0.190554     0.546862     0.306039  Biso 1.000000     O
    O   1.0     0.690679     0.547102     0.306165  Biso 1.000000     O
    O   1.0     0.297694     0.585475     0.406285  Biso 1.000000     O
    O   1.0     0.797942     0.585487     0.406362  Biso 1.000000     O
    O   1.0     0.255408     0.867127     0.104506  Biso 1.000000     O
    O   1.0     0.755608     0.867025     0.104321  Biso 1.000000     O
    O   1.0     0.228430     0.738627     0.041049  Biso 1.000000     O
    O   1.0     0.728035     0.738282     0.041324  Biso 1.000000     O
    O   1.0     0.044244     0.785557     0.061898  Biso 1.000000     O
    O   1.0     0.544180     0.785557     0.061921  Biso 1.000000     O
    O   1.0     0.455667     0.895865     0.085466  Biso 1.000000     O
    O   1.0     0.955761     0.895901     0.085389  Biso 1.000000     O
    O   1.0     0.386795     0.467691     0.510322  Biso 1.000000     O
    O   1.0     0.886839     0.467668     0.510318  Biso 1.000000     O
    O   1.0     0.271522     0.959103     0.847482  Biso 1.000000     O
    O   1.0     0.771560     0.958973     0.847474  Biso 1.000000     O
    O   1.0     0.205170     0.820332     0.881593  Biso 1.000000     O
    O   1.0     0.705389     0.820180     0.881738  Biso 1.000000     O
    O   1.0     0.059349     0.954126     0.805870  Biso 1.000000     O
    O   1.0     0.559329     0.954270     0.805850  Biso 1.000000     O
    O   1.0     0.452576     0.914684     0.906172  Biso 1.000000     O
    O   1.0     0.952595     0.914634     0.906205  Biso 1.000000     O
    O   1.0     0.494149     0.632979     0.604160  Biso 1.000000     O
    O   1.0     0.994512     0.632781     0.604397  Biso 1.000000     O
    O   1.0     0.022595     0.761618     0.541607  Biso 1.000000     O
    O   1.0     0.522928     0.761992     0.541729  Biso 1.000000     O
    O   1.0     0.206395     0.714445     0.561899  Biso 1.000000     O
    O   1.0     0.706393     0.714365     0.561917  Biso 1.000000     O
    O   1.0     0.293942     0.603635     0.586281  Biso 1.000000     O
    O   1.0     0.794162     0.603675     0.586130  Biso 1.000000     O
    O   1.0     0.363097     0.032261     0.010370  Biso 1.000000     O
    O   1.0     0.863084     0.032212     0.010355  Biso 1.000000     O
    O   1.0     0.020872     0.458502     0.652495  Biso 1.000000     O
    O   1.0     0.521076     0.458822     0.652575  Biso 1.000000     O
    O   1.0     0.455492     0.319909     0.618014  Biso 1.000000     O
    O   1.0     0.954691     0.319677     0.618277  Biso 1.000000     O
    O   1.0     0.309328     0.452892     0.693830  Biso 1.000000     O
    O   1.0     0.809452     0.453164     0.693964  Biso 1.000000     O
    O   1.0     0.202065     0.414506     0.593633  Biso 1.000000     O
    O   1.0     0.702323     0.414525     0.593714  Biso 1.000000     O
    O   1.0     0.244398     0.132973     0.895682  Biso 1.000000     O
    O   1.0     0.744588     0.132880     0.895507  Biso 1.000000     O
    O   1.0     0.272002     0.261727     0.958657  Biso 1.000000     O
    O   1.0     0.771610     0.261394     0.958936  Biso 1.000000     O
    O   1.0     0.455853     0.214442     0.938086  Biso 1.000000     O
    O   1.0     0.955775     0.214438     0.938104  Biso 1.000000     O
    O   1.0     0.044242     0.104086     0.914597  Biso 1.000000     O
    O   1.0     0.544312     0.104107     0.914480  Biso 1.000000     O
    O   1.0     0.113169     0.532327     0.489679  Biso 1.000000     O
    O   1.0     0.613212     0.532305     0.489676  Biso 1.000000     O
    O   1.0     0.228472     0.041046     0.152522  Biso 1.000000     O
    O   1.0     0.728495     0.040899     0.152516  Biso 1.000000     O
    O   1.0     0.294622     0.179845     0.118255  Biso 1.000000     O
    O   1.0     0.794834     0.179672     0.118402  Biso 1.000000     O
    O   1.0     0.440695     0.045698     0.194149  Biso 1.000000     O
    O   1.0     0.940665     0.045868     0.194128  Biso 1.000000     O
    O   1.0     0.047417     0.085360     0.093792  Biso 1.000000     O
    O   1.0     0.547431     0.085311     0.093822  Biso 1.000000     O
    O   1.0     0.005504     0.367217     0.395602  Biso 1.000000     O
    O   1.0     0.505853     0.367015     0.395835  Biso 1.000000     O
    O   1.0     0.477076     0.238002     0.458268  Biso 1.000000     O
    O   1.0     0.977410     0.238380     0.458390  Biso 1.000000     O
    O   1.0     0.293609     0.285632     0.438084  Biso 1.000000     O
    O   1.0     0.793609     0.285551     0.438098  Biso 1.000000     O
    O   1.0     0.205856     0.396331     0.413859  Biso 1.000000     O
    O   1.0     0.706059     0.396359     0.413719  Biso 1.000000     O
    O   1.0     0.136925     0.967787     0.989644  Biso 1.000000     O
    O   1.0     0.636913     0.967745     0.989628  Biso 1.000000     O
   Zn   1.0     0.097805     0.662418     0.493353  Biso 1.000000    Zn
   Zn   1.0     0.597720     0.662410     0.493400  Biso 1.000000    Zn
   Zn   1.0     0.093494     0.477960     0.375001  Biso 1.000000    Zn
   Zn   1.0     0.593554     0.477942     0.374997  Biso 1.000000    Zn
   Zn   1.0     0.152449     0.837689     0.993286  Biso 1.000000    Zn
   Zn   1.0     0.652454     0.837626     0.993329  Biso 1.000000    Zn
   Zn   1.0     0.156641     0.022152     0.875039  Biso 1.000000    Zn
   Zn   1.0     0.656694     0.022120     0.875029  Biso 1.000000    Zn
   Zn   1.0     0.402287     0.337586     0.506598  Biso 1.000000    Zn
   Zn   1.0     0.902201     0.337576     0.506646  Biso 1.000000    Zn
   Zn   1.0     0.406453     0.522053     0.625002  Biso 1.000000    Zn
   Zn   1.0     0.906517     0.522039     0.624996  Biso 1.000000    Zn
   Zn   1.0     0.347560     0.162377     0.006668  Biso 1.000000    Zn
   Zn   1.0     0.847560     0.162310     0.006711  Biso 1.000000    Zn
   Zn   1.0     0.343316     0.977876     0.124967  Biso 1.000000    Zn
   Zn   1.0     0.843369     0.977843     0.124959  Biso 1.000000    Zn
   Zn   1.0     0.249982     0.500001     0.500001  Biso 1.000000    Zn
   Zn   1.0     0.750026     0.499996     0.499996  Biso 1.000000    Zn
   Zn   1.0     0.000000     0.000001    -0.000001  Biso 1.000000    Zn
   Zn   1.0     0.500004     0.000001    -0.000003  Biso 1.000000    Zn
