#======================================================================

# CRYSTAL DATA

#----------------------------------------------------------------------

data_VESTA_phase_1


_pd_phase_name                         MOF
_cell_length_a                         18.57700
_cell_length_b                         18.58300
_cell_length_c                         18.58300
_cell_angle_alpha                      90.00100
_cell_angle_beta                       90.00000
_cell_angle_gamma                      90.00000
_symmetry_space_group_name_H-M         "P 1"
_symmetry_Int_Tables_number            1

loop_
_symmetry_equiv_pos_as_xyz
   "x, y, z"

loop_
   _atom_site_label
   _atom_site_occupancy
   _atom_site_fract_x
   _atom_site_fract_y
   _atom_site_fract_z
   _atom_site_adp_type
   _atom_site_B_iso_or_equiv
   _atom_site_type_symbol
    H   1.0     0.868769     0.719313     0.555018  Biso 1.000000     H
    H   1.0     0.131153     0.280590     0.555058  Biso 1.000000     H
    H   1.0     0.131183     0.719343     0.444975  Biso 1.000000     H
    H   1.0     0.868786     0.280644     0.444957  Biso 1.000000     H
    H   1.0     0.554986     0.868816     0.719326  Biso 1.000000     H
    H   1.0     0.555058     0.131104     0.280578  Biso 1.000000     H
    H   1.0     0.444989     0.131193     0.719370  Biso 1.000000     H
    H   1.0     0.444942     0.868847     0.280597  Biso 1.000000     H
    H   1.0     0.719329     0.554993     0.868738  Biso 1.000000     H
    H   1.0     0.280741     0.554948     0.131315  Biso 1.000000     H
    H   1.0     0.719337     0.444972     0.131229  Biso 1.000000     H
    H   1.0     0.280708     0.445073     0.868676  Biso 1.000000     H
    H   1.0     0.719231     0.868618     0.445050  Biso 1.000000     H
    H   1.0     0.280782     0.131298     0.445037  Biso 1.000000     H
    H   1.0     0.719353     0.131226     0.554984  Biso 1.000000     H
    H   1.0     0.280783     0.868682     0.554937  Biso 1.000000     H
    H   1.0     0.868693     0.554896     0.280791  Biso 1.000000     H
    H   1.0     0.131248     0.554996     0.719284  Biso 1.000000     H
    H   1.0     0.131289     0.445010     0.280736  Biso 1.000000     H
    H   1.0     0.868740     0.445034     0.719213  Biso 1.000000     H
    H   1.0     0.555026     0.719289     0.131162  Biso 1.000000     H
    H   1.0     0.554916     0.280744     0.868683  Biso 1.000000     H
    H   1.0     0.444943     0.719409     0.868881  Biso 1.000000     H
    H   1.0     0.445051     0.280719     0.131221  Biso 1.000000     H
    H   1.0     0.131230     0.280645     0.444970  Biso 1.000000     H
    H   1.0     0.868818     0.719331     0.444955  Biso 1.000000     H
    H   1.0     0.868815     0.280624     0.555021  Biso 1.000000     H
    H   1.0     0.131203     0.719338     0.555029  Biso 1.000000     H
    H   1.0     0.444959     0.131100     0.280567  Biso 1.000000     H
    H   1.0     0.444887     0.868963     0.719480  Biso 1.000000     H
    H   1.0     0.555058     0.868840     0.280573  Biso 1.000000     H
    H   1.0     0.555042     0.131167     0.719321  Biso 1.000000     H
    H   1.0     0.280646     0.444962     0.131213  Biso 1.000000     H
    H   1.0     0.719345     0.444966     0.868753  Biso 1.000000     H
    H   1.0     0.280708     0.554995     0.868719  Biso 1.000000     H
    H   1.0     0.719333     0.554946     0.131246  Biso 1.000000     H
    H   1.0     0.280759     0.131306     0.554952  Biso 1.000000     H
    H   1.0     0.719293     0.868697     0.554984  Biso 1.000000     H
    H   1.0     0.280759     0.868703     0.445061  Biso 1.000000     H
    H   1.0     0.719213     0.131347     0.445072  Biso 1.000000     H
    H   1.0     0.131273     0.445044     0.719207  Biso 1.000000     H
    H   1.0     0.868784     0.444965     0.280683  Biso 1.000000     H
    H   1.0     0.868752     0.554984     0.719286  Biso 1.000000     H
    H   1.0     0.131251     0.554971     0.280746  Biso 1.000000     H
    H   1.0     0.444893     0.280610     0.868915  Biso 1.000000     H
    H   1.0     0.444971     0.719368     0.131173  Biso 1.000000     H
    H   1.0     0.555027     0.280633     0.131137  Biso 1.000000     H
    H   1.0     0.554955     0.719269     0.868778  Biso 1.000000     H
    H   1.0     0.771802     0.771798     0.608293  Biso 1.000000     H
    H   1.0     0.228189     0.228184     0.608287  Biso 1.000000     H
    H   1.0     0.228181     0.771804     0.391725  Biso 1.000000     H
    H   1.0     0.771784     0.228201     0.391716  Biso 1.000000     H
    H   1.0     0.608230     0.771802     0.771818  Biso 1.000000     H
    H   1.0     0.608215     0.228200     0.228190  Biso 1.000000     H
    H   1.0     0.391760     0.228222     0.771812  Biso 1.000000     H
    H   1.0     0.391737     0.771821     0.228185  Biso 1.000000     H
    H   1.0     0.771799     0.608274     0.771800  Biso 1.000000     H
    H   1.0     0.228175     0.608287     0.228201  Biso 1.000000     H
    H   1.0     0.771832     0.391678     0.228160  Biso 1.000000     H
    H   1.0     0.228133     0.391692     0.771818  Biso 1.000000     H
    H   1.0     0.771789     0.771758     0.391716  Biso 1.000000     H
    H   1.0     0.228214     0.228173     0.391701  Biso 1.000000     H
    H   1.0     0.771852     0.228167     0.608285  Biso 1.000000     H
    H   1.0     0.228157     0.771852     0.608322  Biso 1.000000     H
    H   1.0     0.771823     0.608237     0.228199  Biso 1.000000     H
    H   1.0     0.228208     0.608282     0.771785  Biso 1.000000     H
    H   1.0     0.228200     0.391699     0.228196  Biso 1.000000     H
    H   1.0     0.771794     0.391733     0.771758  Biso 1.000000     H
    H   1.0     0.608259     0.771769     0.228151  Biso 1.000000     H
    H   1.0     0.608257     0.228174     0.771786  Biso 1.000000     H
    H   1.0     0.391748     0.771837     0.771830  Biso 1.000000     H
    H   1.0     0.391761     0.228162     0.228149  Biso 1.000000     H
    C   1.0     0.877873     0.673053     0.589124  Biso 1.000000     C
    C   1.0     0.122086     0.326885     0.589129  Biso 1.000000     C
    C   1.0     0.122100     0.673067     0.410883  Biso 1.000000     C
    C   1.0     0.877884     0.326908     0.410856  Biso 1.000000     C
    C   1.0     0.589109     0.877899     0.673067  Biso 1.000000     C
    C   1.0     0.589142     0.122050     0.326873  Biso 1.000000     C
    C   1.0     0.410897     0.122114     0.673086  Biso 1.000000     C
    C   1.0     0.410865     0.877909     0.326896  Biso 1.000000     C
    C   1.0     0.673063     0.589106     0.877862  Biso 1.000000     C
    C   1.0     0.326978     0.589095     0.122171  Biso 1.000000     C
    C   1.0     0.673076     0.410852     0.122107  Biso 1.000000     C
    C   1.0     0.326930     0.410915     0.877852  Biso 1.000000     C
    C   1.0     0.673020     0.877797     0.410880  Biso 1.000000     C
    C   1.0     0.327006     0.122137     0.410879  Biso 1.000000     C
    C   1.0     0.673093     0.122106     0.589105  Biso 1.000000     C
    C   1.0     0.326991     0.877863     0.589111  Biso 1.000000     C
    C   1.0     0.877849     0.589051     0.327003  Biso 1.000000     C
    C   1.0     0.122141     0.589112     0.673033  Biso 1.000000     C
    C   1.0     0.122168     0.410880     0.326975  Biso 1.000000     C
    C   1.0     0.877869     0.410894     0.672984  Biso 1.000000     C
    C   1.0     0.589139     0.673021     0.122080  Biso 1.000000     C
    C   1.0     0.589071     0.326968     0.877822  Biso 1.000000     C
    C   1.0     0.410855     0.673118     0.877940  Biso 1.000000     C
    C   1.0     0.410915     0.326963     0.122113  Biso 1.000000     C
    C   1.0     0.122131     0.326907     0.410865  Biso 1.000000     C
    C   1.0     0.877888     0.673040     0.410879  Biso 1.000000     C
    C   1.0     0.877899     0.326906     0.589105  Biso 1.000000     C
    C   1.0     0.122106     0.673075     0.589133  Biso 1.000000     C
    C   1.0     0.410884     0.122050     0.326869  Biso 1.000000     C
    C   1.0     0.410836     0.877983     0.673153  Biso 1.000000     C
    C   1.0     0.589144     0.877893     0.326867  Biso 1.000000     C
    C   1.0     0.589157     0.122073     0.673057  Biso 1.000000     C
    C   1.0     0.326925     0.410861     0.122103  Biso 1.000000     C
    C   1.0     0.673062     0.410866     0.877844  Biso 1.000000     C
    C   1.0     0.326948     0.589137     0.877868  Biso 1.000000     C
    C   1.0     0.673084     0.589077     0.122108  Biso 1.000000     C
    C   1.0     0.326995     0.122162     0.589100  Biso 1.000000     C
    C   1.0     0.673042     0.877841     0.589111  Biso 1.000000     C
    C   1.0     0.326987     0.877852     0.410904  Biso 1.000000     C
    C   1.0     0.673005     0.122162     0.410898  Biso 1.000000     C
    C   1.0     0.122134     0.410891     0.672989  Biso 1.000000     C
    C   1.0     0.877895     0.410849     0.326933  Biso 1.000000     C
    C   1.0     0.877866     0.589102     0.673037  Biso 1.000000     C
    C   1.0     0.122129     0.589100     0.326986  Biso 1.000000     C
    C   1.0     0.410821     0.326919     0.877944  Biso 1.000000     C
    C   1.0     0.410869     0.673092     0.122090  Biso 1.000000     C
    C   1.0     0.589141     0.326897     0.122047  Biso 1.000000     C
    C   1.0     0.589091     0.673024     0.877881  Biso 1.000000     C
    C   1.0     0.780012     0.686812     0.686823  Biso 1.000000     C
    C   1.0     0.842248     0.652497     0.652505  Biso 1.000000     C
    C   1.0     0.219954     0.313159     0.686828  Biso 1.000000     C
    C   1.0     0.157724     0.347469     0.652496  Biso 1.000000     C
    C   1.0     0.219965     0.686824     0.313184  Biso 1.000000     C
    C   1.0     0.157729     0.652509     0.347503  Biso 1.000000     C
    C   1.0     0.780017     0.313164     0.313162  Biso 1.000000     C
    C   1.0     0.842266     0.347463     0.347470  Biso 1.000000     C
    C   1.0     0.686792     0.780013     0.686828  Biso 1.000000     C
    C   1.0     0.652487     0.842243     0.652508  Biso 1.000000     C
    C   1.0     0.686780     0.219984     0.313177  Biso 1.000000     C
    C   1.0     0.652477     0.157749     0.347488  Biso 1.000000     C
    C   1.0     0.313194     0.219980     0.686830  Biso 1.000000     C
    C   1.0     0.347522     0.157763     0.652504  Biso 1.000000     C
    C   1.0     0.313178     0.780031     0.313176  Biso 1.000000     C
    C   1.0     0.347495     0.842258     0.347490  Biso 1.000000     C
    C   1.0     0.686790     0.686811     0.780020  Biso 1.000000     C
    C   1.0     0.652486     0.652484     0.842244  Biso 1.000000     C
    C   1.0     0.313183     0.686827     0.219981  Biso 1.000000     C
    C   1.0     0.347502     0.652509     0.157755  Biso 1.000000     C
    C   1.0     0.686804     0.313160     0.219957  Biso 1.000000     C
    C   1.0     0.652512     0.347465     0.157713  Biso 1.000000     C
    C   1.0     0.313162     0.313174     0.780038  Biso 1.000000     C
    C   1.0     0.347459     0.347500     0.842271  Biso 1.000000     C
    C   1.0     0.686804     0.779980     0.313156  Biso 1.000000     C
    C   1.0     0.652495     0.842212     0.347467  Biso 1.000000     C
    C   1.0     0.313211     0.219950     0.313148  Biso 1.000000     C
    C   1.0     0.347517     0.157712     0.347456  Biso 1.000000     C
    C   1.0     0.686833     0.219955     0.686809  Biso 1.000000     C
    C   1.0     0.652540     0.157715     0.652497  Biso 1.000000     C
    C   1.0     0.313176     0.780063     0.686853  Biso 1.000000     C
    C   1.0     0.347486     0.842300     0.652546  Biso 1.000000     C
    C   1.0     0.780017     0.686775     0.313182  Biso 1.000000     C
    C   1.0     0.842244     0.652458     0.347515  Biso 1.000000     C
    C   1.0     0.219976     0.686839     0.686827  Biso 1.000000     C
    C   1.0     0.157746     0.652515     0.652504  Biso 1.000000     C
    C   1.0     0.219999     0.313157     0.313170  Biso 1.000000     C
    C   1.0     0.157769     0.347473     0.347495  Biso 1.000000     C
    C   1.0     0.780034     0.313172     0.686800  Biso 1.000000     C
    C   1.0     0.842269     0.347482     0.652479  Biso 1.000000     C
    C   1.0     0.686822     0.686781     0.219958  Biso 1.000000     C
    C   1.0     0.652526     0.652464     0.157722  Biso 1.000000     C
    C   1.0     0.686798     0.313181     0.779982  Biso 1.000000     C
    C   1.0     0.652477     0.347504     0.842201  Biso 1.000000     C
    C   1.0     0.313188     0.686847     0.780035  Biso 1.000000     C
    C   1.0     0.347488     0.652539     0.842274  Biso 1.000000     C
    C   1.0     0.313204     0.313158     0.219957  Biso 1.000000     C
    C   1.0     0.347504     0.347487     0.157729  Biso 1.000000     C
    C   1.0     0.748596     0.748600     0.656857  Biso 1.000000     C
    C   1.0     0.251386     0.251381     0.656857  Biso 1.000000     C
    C   1.0     0.251381     0.748612     0.343154  Biso 1.000000     C
    C   1.0     0.748586     0.251393     0.343145  Biso 1.000000     C
    C   1.0     0.656811     0.748604     0.748616  Biso 1.000000     C
    C   1.0     0.656806     0.251387     0.251381  Biso 1.000000     C
    C   1.0     0.343165     0.251399     0.748620  Biso 1.000000     C
    C   1.0     0.343157     0.748621     0.251386  Biso 1.000000     C
    C   1.0     0.748595     0.656843     0.748607  Biso 1.000000     C
    C   1.0     0.251381     0.656854     0.251397  Biso 1.000000     C
    C   1.0     0.748612     0.343125     0.251368  Biso 1.000000     C
    C   1.0     0.251355     0.343133     0.748620  Biso 1.000000     C
    C   1.0     0.748597     0.748563     0.343144  Biso 1.000000     C
    C   1.0     0.251416     0.251368     0.343133  Biso 1.000000     C
    C   1.0     0.748636     0.251370     0.656843  Biso 1.000000     C
    C   1.0     0.251376     0.748644     0.656876  Biso 1.000000     C
    C   1.0     0.748614     0.656804     0.251389  Biso 1.000000     C
    C   1.0     0.251398     0.656864     0.748607  Biso 1.000000     C
    C   1.0     0.251408     0.343131     0.251383  Biso 1.000000     C
    C   1.0     0.748603     0.343154     0.748572  Biso 1.000000     C
    C   1.0     0.656837     0.748572     0.251360  Biso 1.000000     C
    C   1.0     0.656837     0.251376     0.748586  Biso 1.000000     C
    C   1.0     0.343162     0.748643     0.748633  Biso 1.000000     C
    C   1.0     0.343183     0.251363     0.251357  Biso 1.000000     C
    N   1.0     0.930007     0.625091     0.573186  Biso 1.000000     N
    N   1.0     0.069969     0.374857     0.573166  Biso 1.000000     N
    N   1.0     0.069978     0.625095     0.426832  Biso 1.000000     N
    N   1.0     0.930033     0.374858     0.426786  Biso 1.000000     N
    N   1.0     0.573191     0.930021     0.625104  Biso 1.000000     N
    N   1.0     0.573216     0.069921     0.374821  Biso 1.000000     N
    N   1.0     0.426842     0.069994     0.625128  Biso 1.000000     N
    N   1.0     0.426815     0.930029     0.374848  Biso 1.000000     N
    N   1.0     0.625121     0.573180     0.930018  Biso 1.000000     N
    N   1.0     0.374914     0.573199     0.069996  Biso 1.000000     N
    N   1.0     0.625146     0.426757     0.069932  Biso 1.000000     N
    N   1.0     0.374883     0.426840     0.930003  Biso 1.000000     N
    N   1.0     0.625083     0.929970     0.426782  Biso 1.000000     N
    N   1.0     0.374957     0.069980     0.426788  Biso 1.000000     N
    N   1.0     0.625143     0.069950     0.573184  Biso 1.000000     N
    N   1.0     0.374934     0.930031     0.573214  Biso 1.000000     N
    N   1.0     0.929986     0.573127     0.374971  Biso 1.000000     N
    N   1.0     0.069991     0.573190     0.625078  Biso 1.000000     N
    N   1.0     0.070016     0.426795     0.374928  Biso 1.000000     N
    N   1.0     0.930008     0.426811     0.625017  Biso 1.000000     N
    N   1.0     0.573226     0.625075     0.069941  Biso 1.000000     N
    N   1.0     0.573164     0.374910     0.929969  Biso 1.000000     N
    N   1.0     0.426780     0.625163     0.930067  Biso 1.000000     N
    N   1.0     0.426820     0.374909     0.069971  Biso 1.000000     N
    N   1.0     0.070006     0.374876     0.426812  Biso 1.000000     N
    N   1.0     0.930022     0.625081     0.426824  Biso 1.000000     N
    N   1.0     0.930020     0.374875     0.573147  Biso 1.000000     N
    N   1.0     0.069984     0.625103     0.573188  Biso 1.000000     N
    N   1.0     0.426824     0.069931     0.374828  Biso 1.000000     N
    N   1.0     0.426789     0.930089     0.625185  Biso 1.000000     N
    N   1.0     0.573213     0.930013     0.374826  Biso 1.000000     N
    N   1.0     0.573230     0.069951     0.625098  Biso 1.000000     N
    N   1.0     0.374885     0.426802     0.069966  Biso 1.000000     N
    N   1.0     0.625118     0.426782     0.930002  Biso 1.000000     N
    N   1.0     0.374892     0.573226     0.930030  Biso 1.000000     N
    N   1.0     0.625125     0.573147     0.069967  Biso 1.000000     N
    N   1.0     0.374949     0.070004     0.573194  Biso 1.000000     N
    N   1.0     0.625103     0.930003     0.573189  Biso 1.000000     N
    N   1.0     0.374942     0.930011     0.426802  Biso 1.000000     N
    N   1.0     0.625091     0.069960     0.426774  Biso 1.000000     N
    N   1.0     0.070009     0.426816     0.625011  Biso 1.000000     N
    N   1.0     0.930029     0.426776     0.374903  Biso 1.000000     N
    N   1.0     0.930004     0.573174     0.625071  Biso 1.000000     N
    N   1.0     0.069998     0.573165     0.374956  Biso 1.000000     N
    N   1.0     0.426752     0.374883     0.930062  Biso 1.000000     N
    N   1.0     0.426818     0.625122     0.069983  Biso 1.000000     N
    N   1.0     0.573224     0.374854     0.069919  Biso 1.000000     N
    N   1.0     0.573183     0.625069     0.930014  Biso 1.000000     N
   Ni   1.0     0.000003     0.624317     0.500013  Biso 1.000000    Ni
   Ni   1.0     0.000014     0.375635     0.499971  Biso 1.000000    Ni
   Ni   1.0     0.500021     0.000020     0.624358  Biso 1.000000    Ni
   Ni   1.0     0.500024    -0.000026     0.375588  Biso 1.000000    Ni
   Ni   1.0     0.624357     0.499961    -0.000019  Biso 1.000000    Ni
   Ni   1.0     0.375667     0.500015     0.000008  Biso 1.000000    Ni
   Ni   1.0     0.624325    -0.000025     0.499974  Biso 1.000000    Ni
   Ni   1.0     0.375729     0.000011     0.499999  Biso 1.000000    Ni
   Ni   1.0     0.000020     0.499967     0.375732  Biso 1.000000    Ni
   Ni   1.0     0.000013     0.499992     0.624243  Biso 1.000000    Ni
   Ni   1.0     0.500005     0.624326     0.000008  Biso 1.000000    Ni
   Ni   1.0     0.499996     0.375671    -0.000017  Biso 1.000000    Ni
