#======================================================================

# CRYSTAL DATA

#----------------------------------------------------------------------

data_VESTA_phase_1


_pd_phase_name                         MOF
_cell_length_a                         15.19100
_cell_length_b                         15.28400
_cell_length_c                         22.58000
_cell_angle_alpha                      107.06400
_cell_angle_beta                       106.78400
_cell_angle_gamma                      97.77900
_symmetry_space_group_name_H-M         "P 1"
_symmetry_Int_Tables_number            1

loop_
_symmetry_equiv_pos_as_xyz
   "x, y, z"

loop_
   _atom_site_label
   _atom_site_occupancy
   _atom_site_fract_x
   _atom_site_fract_y
   _atom_site_fract_z
   _atom_site_adp_type
   _atom_site_B_iso_or_equiv
   _atom_site_type_symbol
    H   1.0     0.515715     0.168420     0.335754  Biso 1.000000     H
    H   1.0     0.515712     0.168330     0.835752  Biso 1.000000     H
    H   1.0     0.515771     0.667967     0.335670  Biso 1.000000     H
    H   1.0     0.515717     0.668122     0.835691  Biso 1.000000     H
    H   1.0     0.000000     0.167949     0.335671  Biso 1.000000     H
    H   1.0     0.000000     0.168142     0.835691  Biso 1.000000     H
    H   1.0     0.000000     0.668387     0.335748  Biso 1.000000     H
    H   1.0     0.000000     0.668346     0.835758  Biso 1.000000     H
    H   1.0     0.074206     0.466455     0.230762  Biso 1.000000     H
    H   1.0     0.074258     0.466508     0.730758  Biso 1.000000     H
    H   1.0     0.074797     0.966485     0.230818  Biso 1.000000     H
    H   1.0     0.074513     0.966507     0.730795  Biso 1.000000     H
    H   1.0     0.574784     0.466501     0.230816  Biso 1.000000     H
    H   1.0     0.574501     0.466507     0.730796  Biso 1.000000     H
    H   1.0     0.574200     0.966461     0.230756  Biso 1.000000     H
    H   1.0     0.574254     0.966491     0.730760  Biso 1.000000     H
    H   1.0     0.319295     0.168043     0.335874  Biso 1.000000     H
    H   1.0     0.319158     0.167909     0.835808  Biso 1.000000     H
    H   1.0     0.318996     0.667686     0.335708  Biso 1.000000     H
    H   1.0     0.319037     0.667755     0.835731  Biso 1.000000     H
    H   1.0     0.818985     0.167698     0.335712  Biso 1.000000     H
    H   1.0     0.819027     0.167756     0.835729  Biso 1.000000     H
    H   1.0     0.819286     0.668044     0.335873  Biso 1.000000     H
    H   1.0     0.819156     0.667893     0.835807  Biso 1.000000     H
    H   1.0     0.156331     0.264167     0.230874  Biso 1.000000     H
    H   1.0     0.156379     0.264223     0.730875  Biso 1.000000     H
    H   1.0     0.156505     0.764285     0.230940  Biso 1.000000     H
    H   1.0     0.156463     0.764291     0.730923  Biso 1.000000     H
    H   1.0     0.656500     0.264302     0.230941  Biso 1.000000     H
    H   1.0     0.656447     0.264289     0.730924  Biso 1.000000     H
    H   1.0     0.656340     0.764170     0.230869  Biso 1.000000     H
    H   1.0     0.656370     0.764208     0.730877  Biso 1.000000     H
    H   1.0    -0.015698     0.331956     0.164309  Biso 1.000000     H
    H   1.0    -0.015754     0.332137     0.664323  Biso 1.000000     H
    H   1.0    -0.015783     0.832336     0.164350  Biso 1.000000     H
    H   1.0    -0.015767     0.832299     0.664362  Biso 1.000000     H
    H   1.0     0.484208     0.332359     0.164349  Biso 1.000000     H
    H   1.0     0.484220     0.332290     0.664362  Biso 1.000000     H
    H   1.0     0.484303     0.831976     0.164310  Biso 1.000000     H
    H   1.0     0.484240     0.832116     0.664321  Biso 1.000000     H
    H   1.0     0.425564     0.033766     0.269179  Biso 1.000000     H
    H   1.0     0.425284     0.033760     0.769159  Biso 1.000000     H
    H   1.0     0.424974     0.533706     0.269103  Biso 1.000000     H
    H   1.0     0.425035     0.533737     0.769115  Biso 1.000000     H
    H   1.0     0.924971     0.033702     0.269112  Biso 1.000000     H
    H   1.0     0.925017     0.033752     0.769110  Biso 1.000000     H
    H   1.0     0.925567     0.533747     0.269179  Biso 1.000000     H
    H   1.0     0.925275     0.533761     0.769159  Biso 1.000000     H
    H   1.0     0.180587     0.332031     0.164058  Biso 1.000000     H
    H   1.0     0.180631     0.332094     0.664077  Biso 1.000000     H
    H   1.0     0.180900     0.832379     0.164224  Biso 1.000000     H
    H   1.0     0.180766     0.832230     0.664155  Biso 1.000000     H
    H   1.0     0.680895     0.332383     0.164228  Biso 1.000000     H
    H   1.0     0.680752     0.332239     0.664153  Biso 1.000000     H
    H   1.0     0.680586     0.832024     0.164058  Biso 1.000000     H
    H   1.0     0.680626     0.832085     0.664076  Biso 1.000000     H
    H   1.0     0.343729     0.236019     0.269110  Biso 1.000000     H
    H   1.0     0.343675     0.236004     0.769094  Biso 1.000000     H
    H   1.0     0.343564     0.735894     0.269039  Biso 1.000000     H
    H   1.0     0.343597     0.735926     0.769047  Biso 1.000000     H
    H   1.0     0.843544     0.235894     0.269046  Biso 1.000000     H
    H   1.0     0.843589     0.235939     0.769045  Biso 1.000000     H
    H   1.0     0.843720     0.736001     0.269109  Biso 1.000000     H
    H   1.0     0.843678     0.736006     0.769094  Biso 1.000000     H
    H   1.0     0.272929     0.164324     0.000012  Biso 1.000000     H
    H   1.0     0.273008     0.164309     0.500014  Biso 1.000000     H
    H   1.0     0.272810     0.664215    -0.000054  Biso 1.000000     H
    H   1.0     0.272778     0.664169     0.499909  Biso 1.000000     H
    H   1.0     0.772813     0.164204    -0.000056  Biso 1.000000     H
    H   1.0     0.772765     0.164198     0.499915  Biso 1.000000     H
    H   1.0     0.772908     0.664297     0.000010  Biso 1.000000     H
    H   1.0     0.773016     0.664323     0.500019  Biso 1.000000     H
    H   1.0     0.227156     0.336064     0.000017  Biso 1.000000     H
    H   1.0     0.227195     0.336069     0.500062  Biso 1.000000     H
    H   1.0     0.227393     0.836175     0.000107  Biso 1.000000     H
    H   1.0     0.227303     0.836159     0.500116  Biso 1.000000     H
    H   1.0     0.727371     0.336164     0.000106  Biso 1.000000     H
    H   1.0     0.727309     0.336185     0.500115  Biso 1.000000     H
    H   1.0     0.727131     0.836036     0.000013  Biso 1.000000     H
    H   1.0     0.727201     0.836080     0.500062  Biso 1.000000     H
    C   1.0     0.211005     0.035089     0.376677  Biso 1.000000     C
    C   1.0     0.210869     0.035102     0.876666  Biso 1.000000     C
    C   1.0     0.210652     0.534974     0.376584  Biso 1.000000     C
    C   1.0     0.210708     0.535027     0.876602  Biso 1.000000     C
    C   1.0     0.710645     0.035001     0.376588  Biso 1.000000     C
    C   1.0     0.710697     0.035019     0.876601  Biso 1.000000     C
    C   1.0     0.711009     0.535103     0.376679  Biso 1.000000     C
    C   1.0     0.710857     0.535078     0.876664  Biso 1.000000     C
    C   1.0     0.226414     0.016592     0.440120  Biso 1.000000     C
    C   1.0     0.226388     0.016615     0.940124  Biso 1.000000     C
    C   1.0     0.226163     0.516446     0.440025  Biso 1.000000     C
    C   1.0     0.226236     0.516506     0.940046  Biso 1.000000     C
    C   1.0     0.726164     0.016476     0.440030  Biso 1.000000     C
    C   1.0     0.726204     0.016495     0.940042  Biso 1.000000     C
    C   1.0     0.726426     0.516607     0.440123  Biso 1.000000     C
    C   1.0     0.726370     0.516588     0.940121  Biso 1.000000     C
    C   1.0     0.165011     0.341547     0.376749  Biso 1.000000     C
    C   1.0     0.165036     0.341658     0.876752  Biso 1.000000     C
    C   1.0     0.165127     0.841764     0.376822  Biso 1.000000     C
    C   1.0     0.165129     0.841778     0.876827  Biso 1.000000     C
    C   1.0     0.665127     0.341793     0.376822  Biso 1.000000     C
    C   1.0     0.665108     0.341765     0.876827  Biso 1.000000     C
    C   1.0     0.665019     0.841568     0.376750  Biso 1.000000     C
    C   1.0     0.665024     0.841632     0.876750  Biso 1.000000     C
    C   1.0     0.213279     0.423679     0.440060  Biso 1.000000     C
    C   1.0     0.213288     0.423739     0.940074  Biso 1.000000     C
    C   1.0     0.213468     0.923814     0.440149  Biso 1.000000     C
    C   1.0     0.213451     0.923836     0.940155  Biso 1.000000     C
    C   1.0     0.713466     0.423842     0.440150  Biso 1.000000     C
    C   1.0     0.713429     0.423824     0.940154  Biso 1.000000     C
    C   1.0     0.713281     0.923694     0.440064  Biso 1.000000     C
    C   1.0     0.713294     0.923713     0.940070  Biso 1.000000     C
    C   1.0     0.289010     0.465205     0.123335  Biso 1.000000     C
    C   1.0     0.289068     0.465224     0.623352  Biso 1.000000     C
    C   1.0     0.289381     0.965296     0.123424  Biso 1.000000     C
    C   1.0     0.289237     0.965276     0.623414  Biso 1.000000     C
    C   1.0     0.789366     0.465286     0.123424  Biso 1.000000     C
    C   1.0     0.789232     0.465297     0.623414  Biso 1.000000     C
    C   1.0     0.789002     0.965182     0.123333  Biso 1.000000     C
    C   1.0     0.789063     0.965228     0.623352  Biso 1.000000     C
    C   1.0     0.273707     0.483780     0.059928  Biso 1.000000     C
    C   1.0     0.273768     0.483794     0.559941  Biso 1.000000     C
    C   1.0     0.273972     0.983894     0.060016  Biso 1.000000     C
    C   1.0     0.273926     0.983882     0.560019  Biso 1.000000     C
    C   1.0     0.773953     0.483883     0.060015  Biso 1.000000     C
    C   1.0     0.773922     0.483906     0.560020  Biso 1.000000     C
    C   1.0     0.773712     0.983752     0.059924  Biso 1.000000     C
    C   1.0     0.773764     0.983804     0.559944  Biso 1.000000     C
    C   1.0     0.335061     0.158805     0.123322  Biso 1.000000     C
    C   1.0     0.335047     0.158789     0.623324  Biso 1.000000     C
    C   1.0     0.334953     0.658613     0.123242  Biso 1.000000     C
    C   1.0     0.334967     0.658670     0.623241  Biso 1.000000     C
    C   1.0     0.834939     0.158595     0.123238  Biso 1.000000     C
    C   1.0     0.834957     0.158693     0.623246  Biso 1.000000     C
    C   1.0     0.835050     0.658782     0.123319  Biso 1.000000     C
    C   1.0     0.835052     0.658797     0.623327  Biso 1.000000     C
    C   1.0     0.286887     0.076680     0.059993  Biso 1.000000     C
    C   1.0     0.286850     0.076668     0.559998  Biso 1.000000     C
    C   1.0     0.286712     0.576547     0.059906  Biso 1.000000     C
    C   1.0     0.286707     0.576561     0.559913  Biso 1.000000     C
    C   1.0     0.786678     0.076533     0.059903  Biso 1.000000     C
    C   1.0     0.786705     0.076585     0.559916  Biso 1.000000     C
    C   1.0     0.786871     0.576655     0.059992  Biso 1.000000     C
    C   1.0     0.786862     0.576678     0.560001  Biso 1.000000     C
    C   1.0     0.262135     0.092391     0.000034  Biso 1.000000     C
    C   1.0     0.262190     0.092378     0.500039  Biso 1.000000     C
    C   1.0     0.261979     0.592279    -0.000042  Biso 1.000000     C
    C   1.0     0.261977     0.592244     0.499946  Biso 1.000000     C
    C   1.0     0.761982     0.092267    -0.000045  Biso 1.000000     C
    C   1.0     0.761964     0.092272     0.499951  Biso 1.000000     C
    C   1.0     0.762117     0.592364     0.000032  Biso 1.000000     C
    C   1.0     0.762195     0.592391     0.500043  Biso 1.000000     C
    C   1.0     0.237996     0.408002     0.000005  Biso 1.000000     C
    C   1.0     0.238001     0.407994     0.500024  Biso 1.000000     C
    C   1.0     0.238214     0.908110     0.000090  Biso 1.000000     C
    C   1.0     0.238151     0.908093     0.500096  Biso 1.000000     C
    C   1.0     0.738191     0.408099     0.000089  Biso 1.000000     C
    C   1.0     0.738156     0.408119     0.500097  Biso 1.000000     C
    C   1.0     0.737967     0.907974     0.000002  Biso 1.000000     C
    C   1.0     0.738009     0.908006     0.500026  Biso 1.000000     C
    O   1.0     0.011240     0.145621     0.289484  Biso 1.000000     O
    O   1.0     0.011210     0.145852     0.789508  Biso 1.000000     O
    O   1.0     0.011208     0.646112     0.289566  Biso 1.000000     O
    O   1.0     0.011213     0.646082     0.789572  Biso 1.000000     O
    O   1.0     0.511202     0.146142     0.289571  Biso 1.000000     O
    O   1.0     0.511196     0.146066     0.789567  Biso 1.000000     O
    O   1.0     0.511240     0.645652     0.289483  Biso 1.000000     O
    O   1.0     0.511205     0.645826     0.789507  Biso 1.000000     O
    O   1.0     0.120322     0.016188     0.227443  Biso 1.000000     O
    O   1.0     0.120020     0.016218     0.727407  Biso 1.000000     O
    O   1.0     0.119635     0.516199     0.227346  Biso 1.000000     O
    O   1.0     0.119728     0.516234     0.727359  Biso 1.000000     O
    O   1.0     0.619630     0.016218     0.227346  Biso 1.000000     O
    O   1.0     0.619712     0.016233     0.727358  Biso 1.000000     O
    O   1.0     0.620321     0.516188     0.227443  Biso 1.000000     O
    O   1.0     0.620011     0.516205     0.727406  Biso 1.000000     O
    O   1.0     0.166353     0.097875     0.368643  Biso 1.000000     O
    O   1.0     0.166292     0.097953     0.868672  Biso 1.000000     O
    O   1.0     0.166145     0.597895     0.368640  Biso 1.000000     O
    O   1.0     0.166203     0.597948     0.868656  Biso 1.000000     O
    O   1.0     0.666139     0.097922     0.368642  Biso 1.000000     O
    O   1.0     0.666184     0.097934     0.868654  Biso 1.000000     O
    O   1.0     0.666358     0.597889     0.368644  Biso 1.000000     O
    O   1.0     0.666282     0.597932     0.868672  Biso 1.000000     O
    O   1.0     0.248169     0.488586     0.337848  Biso 1.000000     O
    O   1.0     0.248253     0.488651     0.837882  Biso 1.000000     O
    O   1.0     0.248735     0.988788     0.338048  Biso 1.000000     O
    O   1.0     0.248502     0.988745     0.837988  Biso 1.000000     O
    O   1.0     0.748731     0.488812     0.338051  Biso 1.000000     O
    O   1.0     0.748484     0.488739     0.837986  Biso 1.000000     O
    O   1.0     0.748166     0.988591     0.337852  Biso 1.000000     O
    O   1.0     0.748248     0.988631     0.837878  Biso 1.000000     O
    O   1.0     0.277914     0.144006     0.289679  Biso 1.000000     O
    O   1.0     0.277739     0.143958     0.789623  Biso 1.000000     O
    O   1.0     0.277519     0.643849     0.289540  Biso 1.000000     O
    O   1.0     0.277572     0.643893     0.789560  Biso 1.000000     O
    O   1.0     0.777512     0.143860     0.289543  Biso 1.000000     O
    O   1.0     0.777558     0.143896     0.789559  Biso 1.000000     O
    O   1.0     0.777908     0.644004     0.289676  Biso 1.000000     O
    O   1.0     0.777735     0.643946     0.789623  Biso 1.000000     O
    O   1.0     0.107411     0.211158     0.227512  Biso 1.000000     O
    O   1.0     0.107398     0.211283     0.727531  Biso 1.000000     O
    O   1.0     0.107431     0.711415     0.227571  Biso 1.000000     O
    O   1.0     0.107413     0.711414     0.727577  Biso 1.000000     O
    O   1.0     0.607423     0.211435     0.227572  Biso 1.000000     O
    O   1.0     0.607401     0.211409     0.727576  Biso 1.000000     O
    O   1.0     0.607410     0.711176     0.227515  Biso 1.000000     O
    O   1.0     0.607394     0.711261     0.727528  Biso 1.000000     O
    O   1.0     0.201342     0.270497     0.368725  Biso 1.000000     O
    O   1.0     0.201273     0.270555     0.868724  Biso 1.000000     O
    O   1.0     0.201242     0.770581     0.368780  Biso 1.000000     O
    O   1.0     0.201260     0.770608     0.868779  Biso 1.000000     O
    O   1.0     0.701235     0.270606     0.368779  Biso 1.000000     O
    O   1.0     0.701245     0.270597     0.868781  Biso 1.000000     O
    O   1.0     0.701334     0.770510     0.368723  Biso 1.000000     O
    O   1.0     0.701274     0.770536     0.868721  Biso 1.000000     O
    O   1.0     0.088926     0.349312     0.338134  Biso 1.000000     O
    O   1.0     0.088981     0.349527     0.838158  Biso 1.000000     O
    O   1.0     0.089174     0.849786     0.338203  Biso 1.000000     O
    O   1.0     0.089127     0.849761     0.838235  Biso 1.000000     O
    O   1.0     0.589174     0.349821     0.338204  Biso 1.000000     O
    O   1.0     0.589105     0.349742     0.838234  Biso 1.000000     O
    O   1.0     0.588933     0.849347     0.338142  Biso 1.000000     O
    O   1.0     0.588975     0.849496     0.838150  Biso 1.000000     O
    O   1.0     0.488743     0.354811     0.210536  Biso 1.000000     O
    O   1.0     0.488746     0.354755     0.710546  Biso 1.000000     O
    O   1.0     0.488807     0.854387     0.210490  Biso 1.000000     O
    O   1.0     0.488765     0.854547     0.710505  Biso 1.000000     O
    O   1.0     0.988791     0.354353     0.210489  Biso 1.000000     O
    O   1.0     0.988757     0.354575     0.710507  Biso 1.000000     O
    O   1.0     0.988739     0.854788     0.210537  Biso 1.000000     O
    O   1.0     0.988744     0.854764     0.710546  Biso 1.000000     O
    O   1.0     0.379489     0.484008     0.272500  Biso 1.000000     O
    O   1.0     0.379578     0.484023     0.772520  Biso 1.000000     O
    O   1.0     0.380187     0.983993     0.272609  Biso 1.000000     O
    O   1.0     0.379881     0.984000     0.772574  Biso 1.000000     O
    O   1.0     0.880178     0.483992     0.272609  Biso 1.000000     O
    O   1.0     0.879867     0.484013     0.772574  Biso 1.000000     O
    O   1.0     0.879484     0.983990     0.272503  Biso 1.000000     O
    O   1.0     0.879572     0.984023     0.772518  Biso 1.000000     O
    O   1.0     0.333643     0.402409     0.131371  Biso 1.000000     O
    O   1.0     0.333696     0.402422     0.631385  Biso 1.000000     O
    O   1.0     0.333881     0.902374     0.131375  Biso 1.000000     O
    O   1.0     0.333799     0.902410     0.631400  Biso 1.000000     O
    O   1.0     0.833862     0.402360     0.131373  Biso 1.000000     O
    O   1.0     0.833795     0.402431     0.631401  Biso 1.000000     O
    O   1.0     0.833642     0.902391     0.131372  Biso 1.000000     O
    O   1.0     0.833694     0.902428     0.631385  Biso 1.000000     O
    O   1.0     0.251713     0.011592     0.162097  Biso 1.000000     O
    O   1.0     0.251493     0.011537     0.662045  Biso 1.000000     O
    O   1.0     0.251133     0.511381     0.161895  Biso 1.000000     O
    O   1.0     0.251237     0.511429     0.661933  Biso 1.000000     O
    O   1.0     0.751127     0.011380     0.161897  Biso 1.000000     O
    O   1.0     0.751220     0.011444     0.661931  Biso 1.000000     O
    O   1.0     0.751713     0.511575     0.162099  Biso 1.000000     O
    O   1.0     0.751487     0.511536     0.662043  Biso 1.000000     O
    O   1.0     0.221943     0.356128     0.210262  Biso 1.000000     O
    O   1.0     0.221993     0.356168     0.710279  Biso 1.000000     O
    O   1.0     0.222352     0.856276     0.210400  Biso 1.000000     O
    O   1.0     0.222176     0.856217     0.710344  Biso 1.000000     O
    O   1.0     0.722346     0.356281     0.210405  Biso 1.000000     O
    O   1.0     0.722162     0.356226     0.710341  Biso 1.000000     O
    O   1.0     0.721940     0.856120     0.210261  Biso 1.000000     O
    O   1.0     0.721988     0.856160     0.710277  Biso 1.000000     O
    O   1.0     0.392565     0.289148     0.272528  Biso 1.000000     O
    O   1.0     0.392541     0.289119     0.772530  Biso 1.000000     O
    O   1.0     0.392551     0.788893     0.272470  Biso 1.000000     O
    O   1.0     0.392535     0.788974     0.772484  Biso 1.000000     O
    O   1.0     0.892540     0.288878     0.272470  Biso 1.000000     O
    O   1.0     0.892524     0.288994     0.772485  Biso 1.000000     O
    O   1.0     0.892559     0.789127     0.272526  Biso 1.000000     O
    O   1.0     0.892541     0.789125     0.772532  Biso 1.000000     O
    O   1.0     0.298630     0.229810     0.131288  Biso 1.000000     O
    O   1.0     0.298632     0.229804     0.631291  Biso 1.000000     O
    O   1.0     0.298707     0.729729     0.131231  Biso 1.000000     O
    O   1.0     0.298646     0.729743     0.631233  Biso 1.000000     O
    O   1.0     0.798695     0.229711     0.131236  Biso 1.000000     O
    O   1.0     0.798637     0.229767     0.631233  Biso 1.000000     O
    O   1.0     0.798620     0.729788     0.131288  Biso 1.000000     O
    O   1.0     0.798635     0.729811     0.631292  Biso 1.000000     O
    O   1.0     0.411152     0.151169     0.161978  Biso 1.000000     O
    O   1.0     0.411102     0.151117     0.661998  Biso 1.000000     O
    O   1.0     0.410958     0.650777     0.161888  Biso 1.000000     O
    O   1.0     0.410994     0.650907     0.661902  Biso 1.000000     O
    O   1.0     0.910934     0.150739     0.161884  Biso 1.000000     O
    O   1.0     0.910988     0.150939     0.661907  Biso 1.000000     O
    O   1.0     0.911143     0.651144     0.161973  Biso 1.000000     O
    O   1.0     0.911105     0.651128     0.662004  Biso 1.000000     O
   Ga   1.0     0.144611     0.144664     0.289744  Biso 1.000000    Ga
   Ga   1.0     0.144513     0.144736     0.789749  Biso 1.000000    Ga
   Ga   1.0     0.144414     0.644789     0.289769  Biso 1.000000    Ga
   Ga   1.0     0.144435     0.644798     0.789767  Biso 1.000000    Ga
   Ga   1.0     0.644403     0.144805     0.289767  Biso 1.000000    Ga
   Ga   1.0     0.644424     0.144797     0.789770  Biso 1.000000    Ga
   Ga   1.0     0.644600     0.644665     0.289737  Biso 1.000000    Ga
   Ga   1.0     0.644513     0.644723     0.789752  Biso 1.000000    Ga
   Ga   1.0     0.355276     0.355515     0.210226  Biso 1.000000    Ga
   Ga   1.0     0.355301     0.355509     0.710231  Biso 1.000000    Ga
   Ga   1.0     0.355483     0.855391     0.210205  Biso 1.000000    Ga
   Ga   1.0     0.355393     0.855441     0.710218  Biso 1.000000    Ga
   Ga   1.0     0.855479     0.355387     0.210211  Biso 1.000000    Ga
   Ga   1.0     0.855379     0.355456     0.710215  Biso 1.000000    Ga
   Ga   1.0     0.855275     0.855501     0.210228  Biso 1.000000    Ga
   Ga   1.0     0.855296     0.855508     0.710230  Biso 1.000000    Ga
   Ga   1.0     0.000001     0.250000     0.250025  Biso 1.000000    Ga
   Ga   1.0     0.000082     0.250359     0.750083  Biso 1.000000    Ga
   Ga   1.0     0.000179     0.750704     0.250141  Biso 1.000000    Ga
   Ga   1.0     0.000169     0.750675     0.750167  Biso 1.000000    Ga
   Ga   1.0     0.500176     0.250736     0.250146  Biso 1.000000    Ga
   Ga   1.0     0.500151     0.250657     0.750162  Biso 1.000000    Ga
   Ga   1.0     0.500020     0.750066     0.250038  Biso 1.000000    Ga
   Ga   1.0     0.500068     0.750316     0.750074  Biso 1.000000    Ga
   Ga   1.0     0.250330     0.000160     0.250080  Biso 1.000000    Ga
   Ga   1.0     0.249904     0.000068     0.749982  Biso 1.000000    Ga
   Ga   1.0     0.249396     0.499926     0.249827  Biso 1.000000    Ga
   Ga   1.0     0.249504     0.499971     0.749860  Biso 1.000000    Ga
   Ga   1.0     0.749389    -0.000065     0.249829  Biso 1.000000    Ga
   Ga   1.0     0.749487    -0.000024     0.749856  Biso 1.000000    Ga
   Ga   1.0     0.750331     0.500154     0.250082  Biso 1.000000    Ga
   Ga   1.0     0.749894     0.500058     0.749980  Biso 1.000000    Ga
