#======================================================================

# CRYSTAL DATA

#----------------------------------------------------------------------

data_VESTA_phase_1


_pd_phase_name                         MOF
_cell_length_a                         15.37500
_cell_length_b                         15.37700
_cell_length_c                         17.98600
_cell_angle_alpha                      95.48200
_cell_angle_beta                       96.32900
_cell_angle_gamma                      94.36600
_symmetry_space_group_name_H-M         "P 1"
_symmetry_Int_Tables_number            1

loop_
_symmetry_equiv_pos_as_xyz
   "x, y, z"

loop_
   _atom_site_label
   _atom_site_occupancy
   _atom_site_fract_x
   _atom_site_fract_y
   _atom_site_fract_z
   _atom_site_adp_type
   _atom_site_B_iso_or_equiv
   _atom_site_type_symbol
    H   1.0     0.031918     0.293844     0.123797  Biso 1.000000     H
    H   1.0     0.043187     0.452909     0.123054  Biso 1.000000     H
    H   1.0     0.942580     0.421379     0.887089  Biso 1.000000     H
    H   1.0     0.937738     0.260636     0.888399  Biso 1.000000     H
    H   1.0     0.300284     0.004807     0.124367  Biso 1.000000     H
    H   1.0     0.458746     0.994238     0.118431  Biso 1.000000     H
    H   1.0     0.419847     0.013261     0.879563  Biso 1.000000     H
    H   1.0     0.259945     0.020155     0.886272  Biso 1.000000     H
    H   1.0     0.033508     0.149375     0.217147  Biso 1.000000     H
    H   1.0     0.031001     0.150547     0.356115  Biso 1.000000     H
    H   1.0     0.968556     0.869660     0.320166  Biso 1.000000     H
    H   1.0     0.972259     0.879914     0.182641  Biso 1.000000     H
    H   1.0     0.995901     0.705109     0.880656  Biso 1.000000     H
    H   1.0     0.990459     0.545215     0.881741  Biso 1.000000     H
    H   1.0     0.018064     0.578236     0.124707  Biso 1.000000     H
    H   1.0     0.027982     0.738636     0.121743  Biso 1.000000     H
    H   1.0     0.692933     0.922498     0.878816  Biso 1.000000     H
    H   1.0     0.533651    -0.071040     0.883264  Biso 1.000000     H
    H   1.0     0.585642     0.000000     0.106810  Biso 1.000000     H
    H   1.0     0.745120     0.000000     0.103345  Biso 1.000000     H
    H   1.0     0.968750     0.851203     0.785792  Biso 1.000000     H
    H   1.0     0.969453     0.852095     0.646867  Biso 1.000000     H
    H   1.0     0.024356     0.133914     0.684692  Biso 1.000000     H
    H   1.0     0.022425     0.121691     0.822082  Biso 1.000000     H
    H   1.0     0.465126     0.622370     0.547571  Biso 1.000000     H
    H   1.0     0.303693     0.620961     0.550724  Biso 1.000000     H
    H   1.0     0.347239     0.694592     0.790084  Biso 1.000000     H
    H   1.0     0.507799     0.690009     0.786304  Biso 1.000000     H
    H   1.0     0.059648     0.636728     0.790685  Biso 1.000000     H
    H   1.0     0.218000     0.624366     0.785883  Biso 1.000000     H
    H   1.0     0.190688     0.695270     0.558419  Biso 1.000000     H
    H   1.0     0.030402     0.698353     0.562021  Biso 1.000000     H
    H   1.0     0.861365     0.411268     0.766314  Biso 1.000000     H
    H   1.0     0.866992     0.250048     0.767437  Biso 1.000000     H
    H   1.0     0.674047     0.207764     0.571724  Biso 1.000000     H
    H   1.0     0.673777     0.368686     0.568946  Biso 1.000000     H
    H   1.0     0.747892     0.928399     0.556395  Biso 1.000000     H
    H   1.0     0.751042     0.089702     0.551279  Biso 1.000000     H
    H   1.0     0.790599     0.127692     0.793915  Biso 1.000000     H
    H   1.0     0.790270     0.968044     0.797789  Biso 1.000000     H
    H   1.0     0.755329     0.541541     0.854073  Biso 1.000000     H
    H   1.0     0.765811     0.526441     0.992831  Biso 1.000000     H
    H   1.0     0.818587     0.808132     0.032081  Biso 1.000000     H
    H   1.0     0.806265     0.811846     0.892765  Biso 1.000000     H
    H   1.0     0.836589     0.777491     0.497504  Biso 1.000000     H
    H   1.0     0.862509     0.781001     0.363151  Biso 1.000000     H
    H   1.0     0.713169     0.527673     0.315050  Biso 1.000000     H
    H   1.0     0.691579     0.536083     0.451231  Biso 1.000000     H
    H   1.0     0.541074     0.374013     0.454600  Biso 1.000000     H
    H   1.0     0.702375     0.376974     0.450620  Biso 1.000000     H
    H   1.0     0.657398     0.299908     0.211725  Biso 1.000000     H
    H   1.0     0.496900     0.302411     0.216423  Biso 1.000000     H
    H   1.0     0.943524     0.356966     0.207276  Biso 1.000000     H
    H   1.0     0.785346     0.368914     0.213418  Biso 1.000000     H
    H   1.0     0.817068     0.307029     0.443519  Biso 1.000000     H
    H   1.0     0.977100     0.304601     0.438424  Biso 1.000000     H
    H   1.0     0.151192     0.583384     0.228178  Biso 1.000000     H
    H   1.0     0.141917     0.743762     0.227919  Biso 1.000000     H
    H   1.0     0.322318     0.787759     0.431908  Biso 1.000000     H
    H   1.0     0.325712     0.627121     0.433579  Biso 1.000000     H
    H   1.0     0.251238     0.065038     0.447060  Biso 1.000000     H
    H   1.0     0.247738     0.903575     0.450154  Biso 1.000000     H
    H   1.0     0.208052     0.869473     0.207369  Biso 1.000000     H
    H   1.0     0.207566     0.029458     0.205831  Biso 1.000000     H
    H   1.0     0.256347     0.450947     0.146629  Biso 1.000000     H
    H   1.0     0.239201     0.468275     0.008297  Biso 1.000000     H
    H   1.0     0.177839     0.187490     0.966940  Biso 1.000000     H
    H   1.0     0.198343     0.181730     0.106170  Biso 1.000000     H
    H   1.0     0.162409     0.221540     0.502954  Biso 1.000000     H
    H   1.0     0.131457     0.218819     0.635976  Biso 1.000000     H
    H   1.0     0.285794     0.469297     0.687448  Biso 1.000000     H
    H   1.0     0.311827     0.460317     0.552366  Biso 1.000000     H
    C   1.0     0.985098     0.266339     0.000000  Biso 1.000000     C
    C   1.0     0.012410     0.321952     0.071859  Biso 1.000000     C
    C   1.0     0.017958     0.412423     0.071010  Biso 1.000000     C
    C   1.0    -0.005169     0.451314     0.000000  Biso 1.000000     C
    C   1.0     0.963980     0.394452     0.939213  Biso 1.000000     C
    C   1.0     0.959969     0.303834     0.939586  Biso 1.000000     C
    C   1.0     0.988102     0.169184     0.000000  Biso 1.000000     C
    C   1.0     0.269593     0.013414     0.005660  Biso 1.000000     C
    C   1.0     0.326753     0.006804     0.070847  Biso 1.000000     C
    C   1.0     0.416103     0.001570     0.067245  Biso 1.000000     C
    C   1.0     0.451844     0.003162    -0.001493  Biso 1.000000     C
    C   1.0     0.393970     0.010283     0.933409  Biso 1.000000     C
    C   1.0     0.304458     0.015113     0.936876  Biso 1.000000     C
    C   1.0     0.172828     0.016683     0.008871  Biso 1.000000     C
    C   1.0     0.018724     0.089074     0.242288  Biso 1.000000     C
    C   1.0     0.017241     0.089456     0.319480  Biso 1.000000     C
    C   1.0    -0.000654     0.009849     0.349140  Biso 1.000000     C
    C   1.0     0.982525     0.932806     0.299618  Biso 1.000000     C
    C   1.0     0.984931     0.937825     0.223386  Biso 1.000000     C
    C   1.0    -0.001623     0.006124     0.430522  Biso 1.000000     C
    C   1.0     0.013449     0.732572     0.001219  Biso 1.000000     C
    C   1.0     0.000000     0.676799     0.933999  Biso 1.000000     C
    C   1.0     0.998505     0.586324     0.935236  Biso 1.000000     C
    C   1.0     0.003173     0.547732     0.003409  Biso 1.000000     C
    C   1.0     0.015139     0.604857     0.070589  Biso 1.000000     C
    C   1.0     0.020666     0.695336     0.069514  Biso 1.000000     C
    C   1.0     0.011169     0.829657     0.000086  Biso 1.000000     C
    C   1.0     0.729681     0.986829     0.991199  Biso 1.000000     C
    C   1.0     0.669290     0.953146     0.929021  Biso 1.000000     C
    C   1.0     0.579490     0.957812     0.931449  Biso 1.000000     C
    C   1.0     0.547072     0.997526     0.995449  Biso 1.000000     C
    C   1.0     0.608472     0.000000     0.057200  Biso 1.000000     C
    C   1.0     0.697964     0.000000     0.055399  Biso 1.000000     C
    C   1.0     0.826785     0.983046     0.990498  Biso 1.000000     C
    C   1.0     0.981435     0.912219     0.761084  Biso 1.000000     C
    C   1.0     0.981989     0.912959     0.683921  Biso 1.000000     C
    C   1.0    -0.002739     0.993369     0.654805  Biso 1.000000     C
    C   1.0     0.012476     0.070149     0.704775  Biso 1.000000     C
    C   1.0     0.011082     0.063992     0.780993  Biso 1.000000     C
    C   1.0     0.997233     0.997795     0.573421  Biso 1.000000     C
    C   1.0     0.496498     0.656238     0.666796  Biso 1.000000     C
    C   1.0     0.438300     0.637431     0.600467  Biso 1.000000     C
    C   1.0     0.348121     0.637676     0.602512  Biso 1.000000     C
    C   1.0     0.312992     0.658020     0.670548  Biso 1.000000     C
    C   1.0     0.372147     0.676680     0.736787  Biso 1.000000     C
    C   1.0     0.462247     0.675169     0.735007  Biso 1.000000     C
    C   1.0     0.593913     0.658018     0.664902  Biso 1.000000     C
    C   1.0     0.034705     0.669284     0.676994  Biso 1.000000     C
    C   1.0     0.088737     0.649225     0.739877  Biso 1.000000     C
    C   1.0     0.178201     0.643683     0.737248  Biso 1.000000     C
    C   1.0     0.217306     0.660690     0.672311  Biso 1.000000     C
    C   1.0     0.162441     0.680843     0.609342  Biso 1.000000     C
    C   1.0     0.072528     0.683879     0.611289  Biso 1.000000     C
    C   1.0     0.938023     0.674040     0.679400  Biso 1.000000     C
    C   1.0     0.767794     0.400087     0.667232  Biso 1.000000     C
    C   1.0     0.821197     0.365840     0.723613  Biso 1.000000     C
    C   1.0     0.823484     0.275691     0.724341  Biso 1.000000     C
    C   1.0     0.770966     0.216745     0.669732  Biso 1.000000     C
    C   1.0     0.717259     0.251802     0.613503  Biso 1.000000     C
    C   1.0     0.716296     0.341987     0.611976  Biso 1.000000     C
    C   1.0     0.765440     0.497218     0.666464  Biso 1.000000     C
    C   1.0     0.768093     0.937669     0.677136  Biso 1.000000     C
    C   1.0     0.757170     0.973027     0.607968  Biso 1.000000     C
    C   1.0     0.758576     0.063212     0.605536  Biso 1.000000     C
    C   1.0     0.770904     0.121019     0.672185  Biso 1.000000     C
    C   1.0     0.782121     0.084858     0.741241  Biso 1.000000     C
    C   1.0     0.780662     0.994609     0.743786  Biso 1.000000     C
    C   1.0     0.768218     0.840465     0.679059  Biso 1.000000     C
    C   1.0     0.767993     0.598466     0.895967  Biso 1.000000     C
    C   1.0     0.773814     0.590621     0.972488  Biso 1.000000     C
    C   1.0     0.792623     0.666542     0.023295  Biso 1.000000     C
    C   1.0     0.803201     0.747766     0.994580  Biso 1.000000     C
    C   1.0     0.796388     0.750079     0.917005  Biso 1.000000     C
    C   1.0     0.802677     0.660087     0.104913  Biso 1.000000     C
    C   1.0     0.802040     0.653695     0.247806  Biso 1.000000     C
    C   1.0     0.809974     0.724157     0.454877  Biso 1.000000     C
    C   1.0     0.824306     0.725450     0.380127  Biso 1.000000     C
    C   1.0     0.789355     0.654380     0.327866  Biso 1.000000     C
    C   1.0     0.740900     0.584497     0.353388  Biso 1.000000     C
    C   1.0     0.728822     0.588785     0.429059  Biso 1.000000     C
    C   1.0     0.508919     0.338171     0.335722  Biso 1.000000     C
    C   1.0     0.567571     0.358482     0.401620  Biso 1.000000     C
    C   1.0     0.657755     0.359193     0.399077  Biso 1.000000     C
    C   1.0     0.692492     0.338490     0.330894  Biso 1.000000     C
    C   1.0     0.632839     0.318144     0.265116  Biso 1.000000     C
    C   1.0     0.542748     0.318560     0.267400  Biso 1.000000     C
    C   1.0     0.411511     0.335984     0.337942  Biso 1.000000     C
    C   1.0     0.970655     0.329155     0.322240  Biso 1.000000     C
    C   1.0     0.915510     0.346562     0.259023  Biso 1.000000     C
    C   1.0     0.826104     0.351762     0.262433  Biso 1.000000     C
    C   1.0     0.788188     0.336948     0.328426  Biso 1.000000     C
    C   1.0     0.844257     0.319651     0.391720  Biso 1.000000     C
    C   1.0     0.934054     0.317002     0.388981  Biso 1.000000     C
    C   1.0     0.067207     0.323960     0.319291  Biso 1.000000     C
    C   1.0     0.237932     0.595002     0.331589  Biso 1.000000     C
    C   1.0     0.187461     0.628850     0.273137  Biso 1.000000     C
    C   1.0     0.183112     0.718856     0.272988  Biso 1.000000     C
    C   1.0     0.230699     0.778209     0.330306  Biso 1.000000     C
    C   1.0     0.282247     0.743508     0.388167  Biso 1.000000     C
    C   1.0     0.285079     0.653463     0.389104  Biso 1.000000     C
    C   1.0     0.241443     0.497998     0.332690  Biso 1.000000     C
    C   1.0     0.230951     0.057739     0.326379  Biso 1.000000     C
    C   1.0     0.241664     0.021225     0.394992  Biso 1.000000     C
    C   1.0     0.240238     0.930850     0.396255  Biso 1.000000     C
    C   1.0     0.228599     0.873954     0.329025  Biso 1.000000     C
    C   1.0     0.216595     0.911338     0.260561  Biso 1.000000     C
    C   1.0     0.217625     0.001694     0.259245  Biso 1.000000     C
    C   1.0     0.232994     0.155130     0.324970  Biso 1.000000     C
    C   1.0     0.240503     0.394686     0.104357  Biso 1.000000     C
    C   1.0     0.230774     0.403790     0.028003  Biso 1.000000     C
    C   1.0     0.206977     0.328958     0.976672  Biso 1.000000     C
    C   1.0     0.196573     0.247279     0.004638  Biso 1.000000     C
    C   1.0     0.207821     0.243677     0.082170  Biso 1.000000     C
    C   1.0     0.192623     0.337225     0.895438  Biso 1.000000     C
    C   1.0     0.191899     0.345084     0.752636  Biso 1.000000     C
    C   1.0     0.188857     0.274485     0.545986  Biso 1.000000     C
    C   1.0     0.171814     0.273614     0.620134  Biso 1.000000     C
    C   1.0     0.206823     0.344045     0.673043  Biso 1.000000     C
    C   1.0     0.257880     0.412942     0.648639  Biso 1.000000     C
    C   1.0     0.272460     0.408319     0.573505  Biso 1.000000     C
    N   1.0     0.003529     0.014431     0.195153  Biso 1.000000     N
    N   1.0     0.029657     0.078529     0.477453  Biso 1.000000     N
    N   1.0     0.965884     0.929977     0.453329  Biso 1.000000     N
    N   1.0     0.995084     0.986557     0.808637  Biso 1.000000     N
    N   1.0     0.965306     0.925587     0.526435  Biso 1.000000     N
    N   1.0     0.029120     0.074129     0.550611  Biso 1.000000     N
    N   1.0     0.779690     0.676694     0.868450  Biso 1.000000     N
    N   1.0     0.779358     0.581776     0.128904  Biso 1.000000     N
    N   1.0     0.779103     0.578298     0.202168  Biso 1.000000     N
    N   1.0     0.841260     0.726532     0.224785  Biso 1.000000     N
    N   1.0     0.841715     0.729991     0.151436  Biso 1.000000     N
    N   1.0     0.762510     0.657208     0.479027  Biso 1.000000     N
    N   1.0     0.228268     0.316170     0.131378  Biso 1.000000     N
    N   1.0     0.215738     0.415862     0.871878  Biso 1.000000     N
    N   1.0     0.215247     0.420134     0.798677  Biso 1.000000     N
    N   1.0     0.149934     0.273495     0.775277  Biso 1.000000     N
    N   1.0     0.149936     0.269325     0.848663  Biso 1.000000     N
    N   1.0     0.238840     0.340429     0.522917  Biso 1.000000     N
    O   1.0     0.011322     0.141206     0.068649  Biso 1.000000     O
    O   1.0     0.969814     0.122151     0.942755  Biso 1.000000     O
    O   1.0     0.145050     0.014811     0.073115  Biso 1.000000     O
    O   1.0     0.124947     0.021820     0.947190  Biso 1.000000     O
    O   1.0     0.000000     0.859565     0.936291  Biso 1.000000     O
    O   1.0     0.010560     0.874803     0.063188  Biso 1.000000     O
    O   1.0     0.855187     0.962941     0.927399  Biso 1.000000     O
    O   1.0     0.874312     0.000000     0.053449  Biso 1.000000     O
    O   1.0     0.641674     0.662468     0.727950  Biso 1.000000     O
    O   1.0     0.621183     0.655654     0.600387  Biso 1.000000     O
    O   1.0     0.911750     0.689058     0.743991  Biso 1.000000     O
    O   1.0     0.889698     0.663463     0.616533  Biso 1.000000     O
    O   1.0     0.784869     0.543765     0.729538  Biso 1.000000     O
    O   1.0     0.744599     0.525539     0.603251  Biso 1.000000     O
    O   1.0     0.774099     0.811235     0.743336  Biso 1.000000     O
    O   1.0     0.763639     0.794321     0.615786  Biso 1.000000     O
    O   1.0     0.363708     0.329200     0.274767  Biso 1.000000     O
    O   1.0     0.384334     0.340519     0.402543  Biso 1.000000     O
    O   1.0     0.093531     0.310854     0.254538  Biso 1.000000     O
    O   1.0     0.115453     0.331973     0.382154  Biso 1.000000     O
    O   1.0     0.225561     0.451297     0.269462  Biso 1.000000     O
    O   1.0     0.259414     0.470165     0.396596  Biso 1.000000     O
    O   1.0     0.225881     0.184106     0.260573  Biso 1.000000     O
    O   1.0     0.240916     0.201451     0.388328  Biso 1.000000     O
   Zn   1.0     0.010842     0.010606     0.081369  Biso 1.000000    Zn
   Zn   1.0     0.989222     0.988714     0.922140  Biso 1.000000    Zn
   Zn   1.0     0.777455     0.678492     0.753208  Biso 1.000000    Zn
   Zn   1.0     0.753069     0.659041     0.593269  Biso 1.000000    Zn
   Zn   1.0     0.229112     0.315314     0.247153  Biso 1.000000    Zn
   Zn   1.0     0.251802     0.337302     0.409034  Biso 1.000000    Zn
