#======================================================================

# CRYSTAL DATA

#----------------------------------------------------------------------

data_VESTA_phase_1


_pd_phase_name                         MOF
_cell_length_a                         14.53000
_cell_length_b                         15.86100
_cell_length_c                         16.41100
_cell_angle_alpha                      89.99900
_cell_angle_beta                       89.99800
_cell_angle_gamma                      89.99900
_symmetry_space_group_name_H-M         "P 1"
_symmetry_Int_Tables_number            1

loop_
_symmetry_equiv_pos_as_xyz
   "x, y, z"

loop_
   _atom_site_label
   _atom_site_occupancy
   _atom_site_fract_x
   _atom_site_fract_y
   _atom_site_fract_z
   _atom_site_adp_type
   _atom_site_B_iso_or_equiv
   _atom_site_type_symbol
    H   1.0     0.450465     0.080247     0.020317  Biso 1.000000     H
    H   1.0     0.279484     0.258407     0.303078  Biso 1.000000     H
    H   1.0     0.628195     0.278153     0.177662  Biso 1.000000     H
    H   1.0     0.049579     0.919492     0.520284  Biso 1.000000     H
    H   1.0     0.220382     0.741518     0.803241  Biso 1.000000     H
    H   1.0     0.871765     0.721793     0.677694  Biso 1.000000     H
    H   1.0     0.549574     0.580260     0.479676  Biso 1.000000     H
    H   1.0     0.720563     0.758402     0.196939  Biso 1.000000     H
    H   1.0     0.371837     0.778153     0.322323  Biso 1.000000     H
    H   1.0     0.950458     0.419460     0.979693  Biso 1.000000     H
    H   1.0     0.779678     0.241542     0.696726  Biso 1.000000     H
    H   1.0     0.128297     0.221791     0.822272  Biso 1.000000     H
    H   1.0     0.549592     0.919710     0.979668  Biso 1.000000     H
    H   1.0     0.720560     0.741576     0.696906  Biso 1.000000     H
    H   1.0     0.371845     0.721839     0.822317  Biso 1.000000     H
    H   1.0     0.950448     0.080550     0.479702  Biso 1.000000     H
    H   1.0     0.779655     0.258497     0.196741  Biso 1.000000     H
    H   1.0     0.128274     0.278212     0.322283  Biso 1.000000     H
    H   1.0     0.450458     0.419700     0.520308  Biso 1.000000     H
    H   1.0     0.279488     0.241587     0.803065  Biso 1.000000     H
    H   1.0     0.628204     0.221839     0.677655  Biso 1.000000     H
    H   1.0     0.049598     0.580585     0.020290  Biso 1.000000     H
    H   1.0     0.220358     0.758467     0.303281  Biso 1.000000     H
    H   1.0     0.871751     0.778214     0.177707  Biso 1.000000     H
    C   1.0     0.172997     0.999173     0.120662  Biso 1.000000     C
    C   1.0     0.244252     0.016035     0.057929  Biso 1.000000     C
    C   1.0     0.380547     0.056182     0.018291  Biso 1.000000     C
    C   1.0     0.250951     0.000000     0.972795  Biso 1.000000     C
    C   1.0     0.190653     0.970596     0.907915  Biso 1.000000     C
    C   1.0     0.348467     0.264194     0.278835  Biso 1.000000     C
    C   1.0     0.478484     0.231669     0.221835  Biso 1.000000     C
    C   1.0     0.554314     0.380381     0.237534  Biso 1.000000     C
    C   1.0     0.480589     0.316898     0.244324  Biso 1.000000     C
    C   1.0     0.548343     0.177706     0.184426  Biso 1.000000     C
    C   1.0     0.326981     0.000752     0.620638  Biso 1.000000     C
    C   1.0     0.255759     0.983779     0.557908  Biso 1.000000     C
    C   1.0     0.119484     0.943589     0.518266  Biso 1.000000     C
    C   1.0     0.249055    -0.005295     0.472801  Biso 1.000000     C
    C   1.0     0.309341     0.029307     0.407929  Biso 1.000000     C
    C   1.0     0.151414     0.735743     0.778964  Biso 1.000000     C
    C   1.0     0.021427     0.768271     0.721915  Biso 1.000000     C
    C   1.0     0.945640     0.619555     0.737583  Biso 1.000000     C
    C   1.0     0.019324     0.683038     0.744382  Biso 1.000000     C
    C   1.0     0.951638     0.822224     0.684442  Biso 1.000000     C
    C   1.0     0.827044     0.499173     0.379328  Biso 1.000000     C
    C   1.0     0.755784     0.516035     0.442062  Biso 1.000000     C
    C   1.0     0.619490     0.556188     0.481700  Biso 1.000000     C
    C   1.0     0.749097     0.505155     0.527175  Biso 1.000000     C
    C   1.0     0.809397     0.470598     0.592057  Biso 1.000000     C
    C   1.0     0.651577     0.764190     0.221174  Biso 1.000000     C
    C   1.0     0.521553     0.731666     0.278161  Biso 1.000000     C
    C   1.0     0.445726     0.880382     0.262459  Biso 1.000000     C
    C   1.0     0.519452     0.816897     0.255673  Biso 1.000000     C
    C   1.0     0.451689     0.677704     0.315562  Biso 1.000000     C
    C   1.0     0.673056     0.500741     0.879331  Biso 1.000000     C
    C   1.0     0.744285     0.483772     0.942062  Biso 1.000000     C
    C   1.0     0.880556     0.443566     0.981707  Biso 1.000000     C
    C   1.0     0.750978     0.494690     0.027189  Biso 1.000000     C
    C   1.0     0.690695     0.529304     0.092057  Biso 1.000000     C
    C   1.0     0.848644     0.235758     0.721006  Biso 1.000000     C
    C   1.0     0.978633     0.268274     0.778055  Biso 1.000000     C
    C   1.0     0.054412     0.119554     0.762387  Biso 1.000000     C
    C   1.0     0.980729     0.183040     0.755592  Biso 1.000000     C
    C   1.0     0.048422     0.322222     0.815529  Biso 1.000000     C
    C   1.0     0.827045     0.000820     0.879318  Biso 1.000000     C
    C   1.0     0.755795     0.983947     0.942053  Biso 1.000000     C
    C   1.0     0.619506     0.943784     0.981693  Biso 1.000000     C
    C   1.0     0.749095    -0.005172     0.027186  Biso 1.000000     C
    C   1.0     0.809390     0.029397     0.092065  Biso 1.000000     C
    C   1.0     0.651576     0.735792     0.721147  Biso 1.000000     C
    C   1.0     0.521560     0.768320     0.778145  Biso 1.000000     C
    C   1.0     0.445725     0.619610     0.762446  Biso 1.000000     C
    C   1.0     0.519453     0.683091     0.755656  Biso 1.000000     C
    C   1.0     0.451701     0.822284     0.815554  Biso 1.000000     C
    C   1.0     0.673062     0.999249     0.379343  Biso 1.000000     C
    C   1.0     0.744279     0.016234     0.442074  Biso 1.000000     C
    C   1.0     0.880547     0.056442     0.481718  Biso 1.000000     C
    C   1.0     0.750984     0.000000     0.527181  Biso 1.000000     C
    C   1.0     0.690701     0.970696     0.592051  Biso 1.000000     C
    C   1.0     0.848624     0.264268     0.221016  Biso 1.000000     C
    C   1.0     0.978610     0.231735     0.278063  Biso 1.000000     C
    C   1.0     0.054403     0.380449     0.262395  Biso 1.000000     C
    C   1.0     0.980717     0.316968     0.255596  Biso 1.000000     C
    C   1.0     0.048398     0.177781     0.315535  Biso 1.000000     C
    C   1.0     0.173000     0.500820     0.620656  Biso 1.000000     C
    C   1.0     0.244257     0.483946     0.557923  Biso 1.000000     C
    C   1.0     0.380546     0.443780     0.518284  Biso 1.000000     C
    C   1.0     0.250945     0.494827     0.472810  Biso 1.000000     C
    C   1.0     0.190648     0.529392     0.407930  Biso 1.000000     C
    C   1.0     0.348471     0.235799     0.778824  Biso 1.000000     C
    C   1.0     0.478490     0.268324     0.721827  Biso 1.000000     C
    C   1.0     0.554318     0.119609     0.737522  Biso 1.000000     C
    C   1.0     0.480593     0.183094     0.744314  Biso 1.000000     C
    C   1.0     0.548349     0.322287     0.684421  Biso 1.000000     C
    C   1.0     0.326985     0.499262     0.120653  Biso 1.000000     C
    C   1.0     0.255760     0.516244     0.057922  Biso 1.000000     C
    C   1.0     0.119497     0.556468     0.018276  Biso 1.000000     C
    C   1.0     0.249066     0.505326     0.972796  Biso 1.000000     C
    C   1.0     0.309345     0.470701     0.907929  Biso 1.000000     C
    C   1.0     0.151394     0.764249     0.278995  Biso 1.000000     C
    C   1.0     0.021412     0.731731     0.221935  Biso 1.000000     C
    C   1.0     0.945630     0.880450     0.237596  Biso 1.000000     C
    C   1.0     0.019313     0.816965     0.244398  Biso 1.000000     C
    C   1.0     0.951627     0.677783     0.184455  Biso 1.000000     C
    N   1.0     0.327387     0.047843     0.084799  Biso 1.000000     N
    N   1.0     0.337993     0.031187     0.949687  Biso 1.000000     N
    N   1.0     0.394243     0.199418     0.244560  Biso 1.000000     N
    N   1.0     0.397958     0.336226     0.280123  Biso 1.000000     N
    N   1.0     0.172645     0.951917     0.584775  Biso 1.000000     N
    N   1.0     0.162025     0.968648     0.449692  Biso 1.000000     N
    N   1.0     0.105660     0.800519     0.744669  Biso 1.000000     N
    N   1.0     0.101924     0.663713     0.780226  Biso 1.000000     N
    N   1.0     0.672648     0.547845     0.415192  Biso 1.000000     N
    N   1.0     0.662048     0.531187     0.550284  Biso 1.000000     N
    N   1.0     0.605796     0.699414     0.255441  Biso 1.000000     N
    N   1.0     0.602087     0.836224     0.219884  Biso 1.000000     N
    N   1.0     0.827396     0.451898     0.915198  Biso 1.000000     N
    N   1.0     0.838013     0.468630     0.050300  Biso 1.000000     N
    N   1.0     0.894402     0.300529     0.755302  Biso 1.000000     N
    N   1.0     0.898129     0.163723     0.719746  Biso 1.000000     N
    N   1.0     0.672663     0.952129     0.915184  Biso 1.000000     N
    N   1.0     0.662057     0.968787     0.050296  Biso 1.000000     N
    N   1.0     0.605802     0.800569     0.755421  Biso 1.000000     N
    N   1.0     0.602083     0.663761     0.719859  Biso 1.000000     N
    N   1.0     0.827389     0.048108     0.415208  Biso 1.000000     N
    N   1.0     0.838009     0.031376     0.550292  Biso 1.000000     N
    N   1.0     0.894376     0.199490     0.255310  Biso 1.000000     N
    N   1.0     0.898117     0.336296     0.219754  Biso 1.000000     N
    N   1.0     0.327389     0.452128     0.584794  Biso 1.000000     N
    N   1.0     0.337991     0.468787     0.449701  Biso 1.000000     N
    N   1.0     0.394249     0.300576     0.744554  Biso 1.000000     N
    N   1.0     0.397961     0.163765     0.780109  Biso 1.000000     N
    N   1.0     0.172654     0.548130     0.084786  Biso 1.000000     N
    N   1.0     0.162035     0.531396     0.949684  Biso 1.000000     N
    N   1.0     0.105641     0.699477     0.244696  Biso 1.000000     N
    N   1.0     0.101908     0.836283     0.280250  Biso 1.000000     N
    O   1.0     0.198905     0.010911     0.194432  Biso 1.000000     O
    O   1.0     0.091816     0.974358     0.104147  Biso 1.000000     O
    O   1.0     0.229484     0.958673     0.838873  Biso 1.000000     O
    O   1.0     0.105891     0.952413     0.917330  Biso 1.000000     O
    O   1.0     0.628889     0.361987     0.200881  Biso 1.000000     O
    O   1.0     0.531126     0.100789     0.173581  Biso 1.000000     O
    O   1.0     0.627129     0.211141     0.163074  Biso 1.000000     O
    O   1.0     0.538935     0.452024     0.270983  Biso 1.000000     O
    O   1.0     0.301076     0.989048     0.694414  Biso 1.000000     O
    O   1.0     0.408141     0.025616     0.604109  Biso 1.000000     O
    O   1.0     0.270506     0.041267     0.338896  Biso 1.000000     O
    O   1.0     0.394101     0.047499     0.417337  Biso 1.000000     O
    O   1.0     0.871090     0.637933     0.700891  Biso 1.000000     O
    O   1.0     0.968892     0.899130     0.673562  Biso 1.000000     O
    O   1.0     0.872837     0.788807     0.663103  Biso 1.000000     O
    O   1.0     0.961067     0.547897     0.770982  Biso 1.000000     O
    O   1.0     0.801131     0.510911     0.305559  Biso 1.000000     O
    O   1.0     0.908228     0.474365     0.395845  Biso 1.000000     O
    O   1.0     0.770567     0.458674     0.661098  Biso 1.000000     O
    O   1.0     0.894158     0.452412     0.582641  Biso 1.000000     O
    O   1.0     0.371148     0.861988     0.299105  Biso 1.000000     O
    O   1.0     0.468908     0.600786     0.326409  Biso 1.000000     O
    O   1.0     0.372902     0.711139     0.336911  Biso 1.000000     O
    O   1.0     0.461108     0.952023     0.229007  Biso 1.000000     O
    O   1.0     0.698974     0.489052     0.805555  Biso 1.000000     O
    O   1.0     0.591898     0.525612     0.895859  Biso 1.000000     O
    O   1.0     0.729530     0.541264     0.161090  Biso 1.000000     O
    O   1.0     0.605934     0.547498     0.082650  Biso 1.000000     O
    O   1.0     0.128963     0.137926     0.799077  Biso 1.000000     O
    O   1.0     0.031165     0.399127     0.826412  Biso 1.000000     O
    O   1.0     0.127228     0.288804     0.836863  Biso 1.000000     O
    O   1.0     0.038977     0.047897     0.728991  Biso 1.000000     O
    O   1.0     0.801136     0.989087     0.805549  Biso 1.000000     O
    O   1.0     0.908225     0.025639     0.895833  Biso 1.000000     O
    O   1.0     0.770556     0.041323     0.161105  Biso 1.000000     O
    O   1.0     0.894150     0.047583     0.082649  Biso 1.000000     O
    O   1.0     0.371151     0.638005     0.799098  Biso 1.000000     O
    O   1.0     0.468920     0.899201     0.826398  Biso 1.000000     O
    O   1.0     0.372914     0.788852     0.836905  Biso 1.000000     O
    O   1.0     0.461104     0.547967     0.728996  Biso 1.000000     O
    O   1.0     0.698968     0.010950     0.305566  Biso 1.000000     O
    O   1.0     0.591904     0.974382     0.395871  Biso 1.000000     O
    O   1.0     0.729539     0.958731     0.661083  Biso 1.000000     O
    O   1.0     0.605943     0.952498     0.582642  Biso 1.000000     O
    O   1.0     0.128953     0.362068     0.299087  Biso 1.000000     O
    O   1.0     0.031143     0.100875     0.326416  Biso 1.000000     O
    O   1.0     0.127199     0.211196     0.336876  Biso 1.000000     O
    O   1.0     0.038978     0.452107     0.228996  Biso 1.000000     O
    O   1.0     0.198913     0.489086     0.694426  Biso 1.000000     O
    O   1.0     0.091818     0.525633     0.604138  Biso 1.000000     O
    O   1.0     0.229481     0.541320     0.338890  Biso 1.000000     O
    O   1.0     0.105887     0.547582     0.417345  Biso 1.000000     O
    O   1.0     0.628895     0.138003     0.700874  Biso 1.000000     O
    O   1.0     0.531130     0.399204     0.673574  Biso 1.000000     O
    O   1.0     0.627136     0.288852     0.663068  Biso 1.000000     O
    O   1.0     0.538938     0.047967     0.770974  Biso 1.000000     O
    O   1.0     0.301067     0.510945     0.194429  Biso 1.000000     O
    O   1.0     0.408140     0.474385     0.104123  Biso 1.000000     O
    O   1.0     0.270506     0.458735     0.838899  Biso 1.000000     O
    O   1.0     0.394104     0.452505     0.917336  Biso 1.000000     O
    O   1.0     0.871081     0.862076     0.200903  Biso 1.000000     O
    O   1.0     0.968885     0.600878     0.173572  Biso 1.000000     O
    O   1.0     0.872824     0.711201     0.163116  Biso 1.000000     O
    O   1.0     0.961061     0.952108     0.270991  Biso 1.000000     O
   Cd   1.0     0.357729     0.061523     0.221994  Biso 1.000000    Cd
   Cd   1.0     0.122276     0.976423     0.314191  Biso 1.000000    Cd
   Cd   1.0     0.142293     0.938353     0.721983  Biso 1.000000    Cd
   Cd   1.0     0.377676     0.023622     0.814156  Biso 1.000000    Cd
   Cd   1.0     0.642306     0.561515     0.277995  Biso 1.000000    Cd
   Cd   1.0     0.877765     0.476432     0.185798  Biso 1.000000    Cd
   Cd   1.0     0.857761     0.438359     0.777989  Biso 1.000000    Cd
   Cd   1.0     0.622364     0.523617     0.685813  Biso 1.000000    Cd
   Cd   1.0     0.642318     0.938465     0.777986  Biso 1.000000    Cd
   Cd   1.0     0.877762     0.023587     0.685792  Biso 1.000000    Cd
   Cd   1.0     0.857746     0.061655     0.277997  Biso 1.000000    Cd
   Cd   1.0     0.622371     0.976365     0.185827  Biso 1.000000    Cd
   Cd   1.0     0.357732     0.438474     0.721994  Biso 1.000000    Cd
   Cd   1.0     0.122280     0.523578     0.814185  Biso 1.000000    Cd
   Cd   1.0     0.142286     0.561648     0.221999  Biso 1.000000    Cd
   Cd   1.0     0.377675     0.476369     0.314171  Biso 1.000000    Cd
   Cd   1.0    -0.000000    -0.000001     0.000000  Biso 1.000000    Cd
   Cd   1.0     0.500018     0.000002     0.499990  Biso 1.000000    Cd
   Cd   1.0     0.000006     0.499997     0.499993  Biso 1.000000    Cd
   Cd   1.0     0.500018     0.500000     0.000002  Biso 1.000000    Cd
