#======================================================================

# CRYSTAL DATA

#----------------------------------------------------------------------

data_VESTA_phase_1


_pd_phase_name                         MOF
_cell_length_a                         18.27000
_cell_length_b                         20.95700
_cell_length_c                         18.59000
_cell_angle_alpha                      89.88900
_cell_angle_beta                       90.06900
_cell_angle_gamma                      89.95900
_symmetry_space_group_name_H-M         "P 1"
_symmetry_Int_Tables_number            1

loop_
_symmetry_equiv_pos_as_xyz
   "x, y, z"

loop_
   _atom_site_label
   _atom_site_occupancy
   _atom_site_fract_x
   _atom_site_fract_y
   _atom_site_fract_z
   _atom_site_adp_type
   _atom_site_B_iso_or_equiv
   _atom_site_type_symbol
    H   1.0     0.159946     0.028237     0.466651  Biso 1.000000     H
    H   1.0     0.159945     0.528237     0.466652  Biso 1.000000     H
    H   1.0     0.659940     0.028236     0.466650  Biso 1.000000     H
    H   1.0     0.659939     0.528236     0.466652  Biso 1.000000     H
    H   1.0     0.368777     0.313971     0.607226  Biso 1.000000     H
    H   1.0     0.368776     0.813971     0.607228  Biso 1.000000     H
    H   1.0     0.868773     0.313972     0.607227  Biso 1.000000     H
    H   1.0     0.868771     0.813971     0.607228  Biso 1.000000     H
    H   1.0     0.167952     0.344431     0.736934  Biso 1.000000     H
    H   1.0     0.167950     0.844429     0.736935  Biso 1.000000     H
    H   1.0     0.667947     0.344431     0.736935  Biso 1.000000     H
    H   1.0     0.667944     0.844428     0.736935  Biso 1.000000     H
    H   1.0     0.109648     0.398914     0.691594  Biso 1.000000     H
    H   1.0     0.109646     0.898912     0.691594  Biso 1.000000     H
    H   1.0     0.609643     0.398913     0.691594  Biso 1.000000     H
    H   1.0     0.609639     0.898910     0.691593  Biso 1.000000     H
    H   1.0     0.489173     0.339493     0.707576  Biso 1.000000     H
    H   1.0     0.489170     0.839491     0.707576  Biso 1.000000     H
    H   1.0     0.989169     0.339493     0.707578  Biso 1.000000     H
    H   1.0     0.989165     0.839491     0.707576  Biso 1.000000     H
    H   1.0     0.425064     0.261362     0.787816  Biso 1.000000     H
    H   1.0     0.425062     0.761360     0.787816  Biso 1.000000     H
    H   1.0     0.925061     0.261362     0.787817  Biso 1.000000     H
    H   1.0     0.925056     0.761360     0.787815  Biso 1.000000     H
    H   1.0     0.299799     0.404590     0.880167  Biso 1.000000     H
    H   1.0     0.299794     0.904588     0.880164  Biso 1.000000     H
    H   1.0     0.799792     0.404590     0.880165  Biso 1.000000     H
    H   1.0     0.799791     0.904588     0.880166  Biso 1.000000     H
    H   1.0     0.358025     0.488261     0.801087  Biso 1.000000     H
    H   1.0     0.358020     0.988258     0.801084  Biso 1.000000     H
    H   1.0     0.858018     0.488260     0.801085  Biso 1.000000     H
    H   1.0     0.858017     0.988259     0.801086  Biso 1.000000     H
    H   1.0     0.410010     0.472140     0.533507  Biso 1.000000     H
    H   1.0     0.410007     0.972140     0.533509  Biso 1.000000     H
    H   1.0     0.910005     0.472140     0.533507  Biso 1.000000     H
    H   1.0     0.910003     0.972138     0.533507  Biso 1.000000     H
    H   1.0     0.118535     0.186080     0.392853  Biso 1.000000     H
    H   1.0     0.118532     0.686081     0.392855  Biso 1.000000     H
    H   1.0     0.618530     0.186082     0.392856  Biso 1.000000     H
    H   1.0     0.618527     0.686080     0.392855  Biso 1.000000     H
    H   1.0     0.417577     0.155703     0.262984  Biso 1.000000     H
    H   1.0     0.417573     0.655701     0.262984  Biso 1.000000     H
    H   1.0     0.917570     0.155702     0.262983  Biso 1.000000     H
    H   1.0     0.917568     0.655701     0.262984  Biso 1.000000     H
    H   1.0     0.359343     0.101248     0.308292  Biso 1.000000     H
    H   1.0     0.359341     0.601246     0.308292  Biso 1.000000     H
    H   1.0     0.859337     0.101247     0.308291  Biso 1.000000     H
    H   1.0     0.859335     0.601246     0.308292  Biso 1.000000     H
    H   1.0     0.239655     0.160836     0.292417  Biso 1.000000     H
    H   1.0     0.239651     0.660834     0.292418  Biso 1.000000     H
    H   1.0     0.739649     0.160836     0.292418  Biso 1.000000     H
    H   1.0     0.739649     0.660834     0.292415  Biso 1.000000     H
    H   1.0     0.176013     0.239345     0.212091  Biso 1.000000     H
    H   1.0     0.176011     0.739343     0.212092  Biso 1.000000     H
    H   1.0     0.676004     0.239345     0.212095  Biso 1.000000     H
    H   1.0     0.676006     0.739344     0.212092  Biso 1.000000     H
    H   1.0     0.049860     0.096890     0.119432  Biso 1.000000     H
    H   1.0     0.049856     0.596888     0.119435  Biso 1.000000     H
    H   1.0     0.549850     0.096891     0.119437  Biso 1.000000     H
    H   1.0     0.549847     0.596890     0.119438  Biso 1.000000     H
    H   1.0     0.107660     0.012847     0.198472  Biso 1.000000     H
    H   1.0     0.107655     0.512846     0.198476  Biso 1.000000     H
    H   1.0     0.607654     0.012847     0.198473  Biso 1.000000     H
    H   1.0     0.607648     0.512847     0.198476  Biso 1.000000     H
    H   1.0     0.159632     0.223250     0.966420  Biso 1.000000     H
    H   1.0     0.159628     0.723249     0.966418  Biso 1.000000     H
    H   1.0     0.659627     0.223248     0.966420  Biso 1.000000     H
    H   1.0     0.659623     0.723249     0.966418  Biso 1.000000     H
    H   1.0     0.369447     0.436197     0.106698  Biso 1.000000     H
    H   1.0     0.369444     0.936193     0.106699  Biso 1.000000     H
    H   1.0     0.869441     0.436196     0.106698  Biso 1.000000     H
    H   1.0     0.869441     0.936193     0.106700  Biso 1.000000     H
    H   1.0     0.168094     0.406612     0.236203  Biso 1.000000     H
    H   1.0     0.168091     0.906610     0.236203  Biso 1.000000     H
    H   1.0     0.668088     0.406612     0.236202  Biso 1.000000     H
    H   1.0     0.668087     0.906610     0.236203  Biso 1.000000     H
    H   1.0     0.109775     0.352254     0.190989  Biso 1.000000     H
    H   1.0     0.109771     0.852252     0.190988  Biso 1.000000     H
    H   1.0     0.609769     0.352254     0.190988  Biso 1.000000     H
    H   1.0     0.609767     0.852252     0.190988  Biso 1.000000     H
    H   1.0     0.489118     0.410746     0.207985  Biso 1.000000     H
    H   1.0     0.489115     0.910744     0.207985  Biso 1.000000     H
    H   1.0     0.989113     0.410745     0.207986  Biso 1.000000     H
    H   1.0     0.989115     0.910742     0.207989  Biso 1.000000     H
    H   1.0     0.425176     0.488678     0.288301  Biso 1.000000     H
    H   1.0     0.425171     0.988676     0.288299  Biso 1.000000     H
    H   1.0     0.925169     0.488677     0.288300  Biso 1.000000     H
    H   1.0     0.925175     0.988674     0.288307  Biso 1.000000     H
    H   1.0     0.299803     0.345351     0.380644  Biso 1.000000     H
    H   1.0     0.299803     0.845348     0.380647  Biso 1.000000     H
    H   1.0     0.799801     0.345349     0.380648  Biso 1.000000     H
    H   1.0     0.799796     0.845348     0.380645  Biso 1.000000     H
    H   1.0     0.357884     0.261866     0.301485  Biso 1.000000     H
    H   1.0     0.357886     0.761863     0.301490  Biso 1.000000     H
    H   1.0     0.857884     0.261864     0.301491  Biso 1.000000     H
    H   1.0     0.857876     0.761863     0.301484  Biso 1.000000     H
    H   1.0     0.409683     0.278405     0.033378  Biso 1.000000     H
    H   1.0     0.409680     0.778404     0.033378  Biso 1.000000     H
    H   1.0     0.909677     0.278404     0.033379  Biso 1.000000     H
    H   1.0     0.909675     0.778401     0.033379  Biso 1.000000     H
    H   1.0     0.119808     0.065479     0.893541  Biso 1.000000     H
    H   1.0     0.119804     0.565475     0.893541  Biso 1.000000     H
    H   1.0     0.619799     0.065475     0.893543  Biso 1.000000     H
    H   1.0     0.619799     0.565476     0.893541  Biso 1.000000     H
    H   1.0     0.418249     0.094641     0.763859  Biso 1.000000     H
    H   1.0     0.418246     0.594639     0.763859  Biso 1.000000     H
    H   1.0     0.918246     0.094642     0.763858  Biso 1.000000     H
    H   1.0     0.918243     0.594640     0.763858  Biso 1.000000     H
    H   1.0     0.359673     0.148826     0.808992  Biso 1.000000     H
    H   1.0     0.359670     0.648824     0.808992  Biso 1.000000     H
    H   1.0     0.859670     0.148826     0.808991  Biso 1.000000     H
    H   1.0     0.859666     0.648825     0.808991  Biso 1.000000     H
    H   1.0     0.239560     0.089391     0.792492  Biso 1.000000     H
    H   1.0     0.239559     0.589389     0.792491  Biso 1.000000     H
    H   1.0     0.739550     0.089389     0.792499  Biso 1.000000     H
    H   1.0     0.739551     0.589389     0.792493  Biso 1.000000     H
    H   1.0     0.175610     0.011370     0.712217  Biso 1.000000     H
    H   1.0     0.175608     0.511367     0.712217  Biso 1.000000     H
    H   1.0     0.675592     0.011366     0.712231  Biso 1.000000     H
    H   1.0     0.675599     0.511367     0.712220  Biso 1.000000     H
    H   1.0     0.049883     0.154609     0.619558  Biso 1.000000     H
    H   1.0     0.049874     0.654605     0.619565  Biso 1.000000     H
    H   1.0     0.549875     0.154606     0.619562  Biso 1.000000     H
    H   1.0     0.549877     0.654607     0.619557  Biso 1.000000     H
    H   1.0     0.107959     0.238168     0.698643  Biso 1.000000     H
    H   1.0     0.107952     0.738165     0.698648  Biso 1.000000     H
    H   1.0     0.607958     0.238167     0.698640  Biso 1.000000     H
    H   1.0     0.607955     0.738167     0.698640  Biso 1.000000     H
    C   1.0     0.185459     0.490442     0.498004  Biso 1.000000     C
    C   1.0     0.185456     0.990439     0.498004  Biso 1.000000     C
    C   1.0     0.685453     0.490441     0.498004  Biso 1.000000     C
    C   1.0     0.685450     0.990438     0.498003  Biso 1.000000     C
    C   1.0     0.322087     0.345844     0.599223  Biso 1.000000     C
    C   1.0     0.322086     0.845843     0.599224  Biso 1.000000     C
    C   1.0     0.822083     0.345844     0.599224  Biso 1.000000     C
    C   1.0     0.822081     0.845843     0.599225  Biso 1.000000     C
    C   1.0     0.210635     0.381308     0.644533  Biso 1.000000     C
    C   1.0     0.210633     0.881306     0.644534  Biso 1.000000     C
    C   1.0     0.710630     0.381308     0.644534  Biso 1.000000     C
    C   1.0     0.710627     0.881306     0.644534  Biso 1.000000     C
    C   1.0     0.206024     0.422119     0.583790  Biso 1.000000     C
    C   1.0     0.206022     0.922117     0.583790  Biso 1.000000     C
    C   1.0     0.706019     0.422119     0.583790  Biso 1.000000     C
    C   1.0     0.706017     0.922116     0.583790  Biso 1.000000     C
    C   1.0     0.264307     0.419821     0.534441  Biso 1.000000     C
    C   1.0     0.264305     0.919819     0.534441  Biso 1.000000     C
    C   1.0     0.764302     0.419821     0.534441  Biso 1.000000     C
    C   1.0     0.764300     0.919819     0.534441  Biso 1.000000     C
    C   1.0     0.464016     0.468436     0.700061  Biso 1.000000     C
    C   1.0     0.464013     0.968434     0.700060  Biso 1.000000     C
    C   1.0     0.964011     0.468436     0.700060  Biso 1.000000     C
    C   1.0     0.964009     0.968434     0.700060  Biso 1.000000     C
    C   1.0     0.447401     0.355432     0.745135  Biso 1.000000     C
    C   1.0     0.447399     0.855430     0.745135  Biso 1.000000     C
    C   1.0     0.947397     0.355432     0.745136  Biso 1.000000     C
    C   1.0     0.947393     0.855430     0.745134  Biso 1.000000     C
    C   1.0     0.428249     0.419935     0.748622  Biso 1.000000     C
    C   1.0     0.428245     0.919932     0.748620  Biso 1.000000     C
    C   1.0     0.928243     0.419934     0.748621  Biso 1.000000     C
    C   1.0     0.928242     0.919933     0.748622  Biso 1.000000     C
    C   1.0     0.412003     0.312110     0.789450  Biso 1.000000     C
    C   1.0     0.412001     0.812108     0.789450  Biso 1.000000     C
    C   1.0     0.911999     0.312110     0.789451  Biso 1.000000     C
    C   1.0     0.911996     0.812108     0.789449  Biso 1.000000     C
    C   1.0     0.341426     0.392389     0.840600  Biso 1.000000     C
    C   1.0     0.341421     0.892387     0.840598  Biso 1.000000     C
    C   1.0     0.841420     0.392389     0.840599  Biso 1.000000     C
    C   1.0     0.841418     0.892387     0.840599  Biso 1.000000     C
    C   1.0     0.373921     0.438323     0.797222  Biso 1.000000     C
    C   1.0     0.373917     0.938321     0.797221  Biso 1.000000     C
    C   1.0     0.873915     0.438323     0.797222  Biso 1.000000     C
    C   1.0     0.873913     0.938321     0.797221  Biso 1.000000     C
    C   1.0     0.435448     0.009883     0.502122  Biso 1.000000     C
    C   1.0     0.435446     0.509880     0.502121  Biso 1.000000     C
    C   1.0     0.935443     0.009881     0.502121  Biso 1.000000     C
    C   1.0     0.935441     0.509880     0.502121  Biso 1.000000     C
    C   1.0     0.071863     0.154267     0.400858  Biso 1.000000     C
    C   1.0     0.071861     0.654267     0.400859  Biso 1.000000     C
    C   1.0     0.571858     0.154269     0.400860  Biso 1.000000     C
    C   1.0     0.571855     0.654267     0.400859  Biso 1.000000     C
    C   1.0     0.460353     0.118864     0.355485  Biso 1.000000     C
    C   1.0     0.460350     0.618862     0.355484  Biso 1.000000     C
    C   1.0     0.960347     0.118863     0.355483  Biso 1.000000     C
    C   1.0     0.960345     0.618862     0.355484  Biso 1.000000     C
    C   1.0     0.455845     0.078094     0.416261  Biso 1.000000     C
    C   1.0     0.455843     0.578091     0.416260  Biso 1.000000     C
    C   1.0     0.955839     0.078092     0.416260  Biso 1.000000     C
    C   1.0     0.955837     0.578091     0.416261  Biso 1.000000     C
    C   1.0     0.014198     0.080405     0.465671  Biso 1.000000     C
    C   1.0     0.014196     0.580404     0.465672  Biso 1.000000     C
    C   1.0     0.514193     0.080407     0.465673  Biso 1.000000     C
    C   1.0     0.514191     0.580404     0.465672  Biso 1.000000     C
    C   1.0     0.213912     0.031997     0.299821  Biso 1.000000     C
    C   1.0     0.213908     0.531995     0.299823  Biso 1.000000     C
    C   1.0     0.713909     0.031995     0.299818  Biso 1.000000     C
    C   1.0     0.713905     0.531995     0.299820  Biso 1.000000     C
    C   1.0     0.197792     0.145124     0.254762  Biso 1.000000     C
    C   1.0     0.197788     0.645122     0.254764  Biso 1.000000     C
    C   1.0     0.697780     0.145125     0.254768  Biso 1.000000     C
    C   1.0     0.697781     0.645123     0.254766  Biso 1.000000     C
    C   1.0     0.178316     0.080709     0.251202  Biso 1.000000     C
    C   1.0     0.178312     0.580708     0.251204  Biso 1.000000     C
    C   1.0     0.678313     0.080708     0.251200  Biso 1.000000     C
    C   1.0     0.678309     0.580707     0.251201  Biso 1.000000     C
    C   1.0     0.162637     0.188674     0.210386  Biso 1.000000     C
    C   1.0     0.162633     0.688673     0.210388  Biso 1.000000     C
    C   1.0     0.662628     0.188675     0.210390  Biso 1.000000     C
    C   1.0     0.662628     0.688673     0.210388  Biso 1.000000     C
    C   1.0     0.091600     0.108841     0.159059  Biso 1.000000     C
    C   1.0     0.091595     0.608839     0.159062  Biso 1.000000     C
    C   1.0     0.591590     0.108841     0.159063  Biso 1.000000     C
    C   1.0     0.591587     0.608841     0.159064  Biso 1.000000     C
    C   1.0     0.123864     0.062685     0.202459  Biso 1.000000     C
    C   1.0     0.123859     0.562683     0.202463  Biso 1.000000     C
    C   1.0     0.623852     0.062686     0.202466  Biso 1.000000     C
    C   1.0     0.623849     0.562685     0.202466  Biso 1.000000     C
    C   1.0     0.185310     0.260884     0.997666  Biso 1.000000     C
    C   1.0     0.185307     0.760883     0.997665  Biso 1.000000     C
    C   1.0     0.685305     0.260882     0.997667  Biso 1.000000     C
    C   1.0     0.685302     0.760883     0.997665  Biso 1.000000     C
    C   1.0     0.322582     0.404606     0.098692  Biso 1.000000     C
    C   1.0     0.322579     0.904603     0.098693  Biso 1.000000     C
    C   1.0     0.822576     0.404605     0.098692  Biso 1.000000     C
    C   1.0     0.822576     0.904602     0.098693  Biso 1.000000     C
    C   1.0     0.210818     0.369748     0.143853  Biso 1.000000     C
    C   1.0     0.210815     0.869746     0.143853  Biso 1.000000     C
    C   1.0     0.710813     0.369748     0.143853  Biso 1.000000     C
    C   1.0     0.710811     0.869746     0.143854  Biso 1.000000     C
    C   1.0     0.206143     0.329014     0.083239  Biso 1.000000     C
    C   1.0     0.206140     0.829012     0.083239  Biso 1.000000     C
    C   1.0     0.706138     0.329013     0.083239  Biso 1.000000     C
    C   1.0     0.706136     0.829012     0.083239  Biso 1.000000     C
    C   1.0     0.264548     0.330988     0.034008  Biso 1.000000     C
    C   1.0     0.264544     0.830986     0.034008  Biso 1.000000     C
    C   1.0     0.764542     0.330987     0.034008  Biso 1.000000     C
    C   1.0     0.764541     0.830986     0.034008  Biso 1.000000     C
    C   1.0     0.463802     0.281955     0.200235  Biso 1.000000     C
    C   1.0     0.463802     0.781952     0.200239  Biso 1.000000     C
    C   1.0     0.963799     0.281953     0.200239  Biso 1.000000     C
    C   1.0     0.963795     0.781952     0.200236  Biso 1.000000     C
    C   1.0     0.447358     0.394734     0.245553  Biso 1.000000     C
    C   1.0     0.447352     0.894733     0.245550  Biso 1.000000     C
    C   1.0     0.947352     0.394733     0.245554  Biso 1.000000     C
    C   1.0     0.947360     0.894730     0.245563  Biso 1.000000     C
    C   1.0     0.428129     0.330257     0.248976  Biso 1.000000     C
    C   1.0     0.428130     0.830254     0.248980  Biso 1.000000     C
    C   1.0     0.928126     0.330256     0.248979  Biso 1.000000     C
    C   1.0     0.928120     0.830255     0.248974  Biso 1.000000     C
    C   1.0     0.412046     0.437955     0.289914  Biso 1.000000     C
    C   1.0     0.412042     0.937953     0.289913  Biso 1.000000     C
    C   1.0     0.912040     0.437954     0.289914  Biso 1.000000     C
    C   1.0     0.912043     0.937951     0.289919  Biso 1.000000     C
    C   1.0     0.341412     0.357622     0.341053  Biso 1.000000     C
    C   1.0     0.341411     0.857620     0.341055  Biso 1.000000     C
    C   1.0     0.841410     0.357621     0.341057  Biso 1.000000     C
    C   1.0     0.841407     0.857618     0.341056  Biso 1.000000     C
    C   1.0     0.373834     0.311786     0.297623  Biso 1.000000     C
    C   1.0     0.373830     0.811784     0.297623  Biso 1.000000     C
    C   1.0     0.873831     0.311785     0.297626  Biso 1.000000     C
    C   1.0     0.873833     0.811782     0.297630  Biso 1.000000     C
    C   1.0     0.435368     0.240737     0.002194  Biso 1.000000     C
    C   1.0     0.435366     0.740736     0.002194  Biso 1.000000     C
    C   1.0     0.935363     0.240736     0.002194  Biso 1.000000     C
    C   1.0     0.935360     0.740734     0.002194  Biso 1.000000     C
    C   1.0     0.072860     0.097028     0.901458  Biso 1.000000     C
    C   1.0     0.072856     0.597024     0.901458  Biso 1.000000     C
    C   1.0     0.572851     0.097025     0.901460  Biso 1.000000     C
    C   1.0     0.572851     0.597025     0.901458  Biso 1.000000     C
    C   1.0     0.460904     0.131712     0.856155  Biso 1.000000     C
    C   1.0     0.460903     0.631711     0.856155  Biso 1.000000     C
    C   1.0     0.960902     0.131714     0.856154  Biso 1.000000     C
    C   1.0     0.960898     0.631712     0.856154  Biso 1.000000     C
    C   1.0     0.456164     0.172510     0.916719  Biso 1.000000     C
    C   1.0     0.456162     0.672509     0.916719  Biso 1.000000     C
    C   1.0     0.956160     0.172511     0.916718  Biso 1.000000     C
    C   1.0     0.956157     0.672509     0.916718  Biso 1.000000     C
    C   1.0     0.014688     0.170644     0.965975  Biso 1.000000     C
    C   1.0     0.014684     0.670641     0.965976  Biso 1.000000     C
    C   1.0     0.514681     0.170643     0.965976  Biso 1.000000     C
    C   1.0     0.514680     0.670642     0.965975  Biso 1.000000     C
    C   1.0     0.214001     0.218268     0.799969  Biso 1.000000     C
    C   1.0     0.214000     0.718266     0.799967  Biso 1.000000     C
    C   1.0     0.714001     0.218270     0.799963  Biso 1.000000     C
    C   1.0     0.713996     0.718266     0.799967  Biso 1.000000     C
    C   1.0     0.197725     0.105368     0.754851  Biso 1.000000     C
    C   1.0     0.197721     0.605366     0.754853  Biso 1.000000     C
    C   1.0     0.697705     0.105365     0.754869  Biso 1.000000     C
    C   1.0     0.697714     0.605366     0.754855  Biso 1.000000     C
    C   1.0     0.178395     0.169844     0.751311  Biso 1.000000     C
    C   1.0     0.178393     0.669842     0.751311  Biso 1.000000     C
    C   1.0     0.678397     0.169845     0.751305  Biso 1.000000     C
    C   1.0     0.678390     0.669843     0.751309  Biso 1.000000     C
    C   1.0     0.162403     0.062094     0.710515  Biso 1.000000     C
    C   1.0     0.162400     0.562092     0.710516  Biso 1.000000     C
    C   1.0     0.662389     0.062092     0.710526  Biso 1.000000     C
    C   1.0     0.662393     0.562092     0.710517  Biso 1.000000     C
    C   1.0     0.091580     0.142373     0.659193  Biso 1.000000     C
    C   1.0     0.091573     0.642370     0.659197  Biso 1.000000     C
    C   1.0     0.591570     0.142370     0.659198  Biso 1.000000     C
    C   1.0     0.591573     0.642371     0.659193  Biso 1.000000     C
    C   1.0     0.124002     0.188254     0.702578  Biso 1.000000     C
    C   1.0     0.123994     0.688251     0.702584  Biso 1.000000     C
    C   1.0     0.623985     0.188250     0.702590  Biso 1.000000     C
    C   1.0     0.623993     0.688252     0.702579  Biso 1.000000     C
    N   1.0     0.250220     0.463390     0.480237  Biso 1.000000     N
    N   1.0     0.250218     0.963387     0.480237  Biso 1.000000     N
    N   1.0     0.750215     0.463389     0.480237  Biso 1.000000     N
    N   1.0     0.750212     0.963386     0.480236  Biso 1.000000     N
    N   1.0     0.324030     0.382191     0.539742  Biso 1.000000     N
    N   1.0     0.324029     0.882189     0.539743  Biso 1.000000     N
    N   1.0     0.824025     0.382191     0.539743  Biso 1.000000     N
    N   1.0     0.824023     0.882189     0.539743  Biso 1.000000     N
    N   1.0     0.156049     0.467730     0.559377  Biso 1.000000     N
    N   1.0     0.156046     0.967727     0.559376  Biso 1.000000     N
    N   1.0     0.656043     0.467729     0.559377  Biso 1.000000     N
    N   1.0     0.656041     0.967726     0.559376  Biso 1.000000     N
    N   1.0     0.270501     0.343272     0.650574  Biso 1.000000     N
    N   1.0     0.270500     0.843271     0.650575  Biso 1.000000     N
    N   1.0     0.770497     0.343272     0.650575  Biso 1.000000     N
    N   1.0     0.770494     0.843270     0.650575  Biso 1.000000     N
    N   1.0     0.160449     0.379001     0.698336  Biso 1.000000     N
    N   1.0     0.160447     0.879000     0.698336  Biso 1.000000     N
    N   1.0     0.660444     0.379001     0.698336  Biso 1.000000     N
    N   1.0     0.660441     0.878999     0.698336  Biso 1.000000     N
    N   1.0     0.360079     0.330179     0.836822  Biso 1.000000     N
    N   1.0     0.360075     0.830177     0.836821  Biso 1.000000     N
    N   1.0     0.860073     0.330178     0.836822  Biso 1.000000     N
    N   1.0     0.860072     0.830177     0.836822  Biso 1.000000     N
    N   1.0     0.000212     0.036912     0.519924  Biso 1.000000     N
    N   1.0     0.000209     0.536911     0.519925  Biso 1.000000     N
    N   1.0     0.500206     0.036913     0.519926  Biso 1.000000     N
    N   1.0     0.500204     0.536911     0.519925  Biso 1.000000     N
    N   1.0     0.073897     0.117979     0.460388  Biso 1.000000     N
    N   1.0     0.073894     0.617979     0.460390  Biso 1.000000     N
    N   1.0     0.573891     0.117980     0.460390  Biso 1.000000     N
    N   1.0     0.573889     0.617978     0.460390  Biso 1.000000     N
    N   1.0     0.405936     0.032532     0.440685  Biso 1.000000     N
    N   1.0     0.405935     0.532530     0.440683  Biso 1.000000     N
    N   1.0     0.905931     0.032531     0.440683  Biso 1.000000     N
    N   1.0     0.905929     0.532529     0.440683  Biso 1.000000     N
    N   1.0     0.020199     0.156842     0.349462  Biso 1.000000     N
    N   1.0     0.020196     0.656843     0.349464  Biso 1.000000     N
    N   1.0     0.520194     0.156844     0.349464  Biso 1.000000     N
    N   1.0     0.520191     0.656842     0.349463  Biso 1.000000     N
    N   1.0     0.410085     0.121210     0.301643  Biso 1.000000     N
    N   1.0     0.410082     0.621208     0.301642  Biso 1.000000     N
    N   1.0     0.910079     0.121209     0.301642  Biso 1.000000     N
    N   1.0     0.910077     0.621208     0.301642  Biso 1.000000     N
    N   1.0     0.110584     0.170954     0.162888  Biso 1.000000     N
    N   1.0     0.110580     0.670952     0.162889  Biso 1.000000     N
    N   1.0     0.610580     0.170953     0.162886  Biso 1.000000     N
    N   1.0     0.610577     0.670953     0.162887  Biso 1.000000     N
    N   1.0     0.250290     0.287527     0.979927  Biso 1.000000     N
    N   1.0     0.250287     0.787525     0.979926  Biso 1.000000     N
    N   1.0     0.750285     0.287526     0.979927  Biso 1.000000     N
    N   1.0     0.750283     0.787525     0.979927  Biso 1.000000     N
    N   1.0     0.324472     0.368279     0.039346  Biso 1.000000     N
    N   1.0     0.324469     0.868276     0.039346  Biso 1.000000     N
    N   1.0     0.824467     0.368278     0.039346  Biso 1.000000     N
    N   1.0     0.824466     0.868275     0.039347  Biso 1.000000     N
    N   1.0     0.155929     0.283734     0.058901  Biso 1.000000     N
    N   1.0     0.155926     0.783732     0.058900  Biso 1.000000     N
    N   1.0     0.655925     0.283733     0.058901  Biso 1.000000     N
    N   1.0     0.655922     0.783733     0.058900  Biso 1.000000     N
    N   1.0     0.270883     0.407448     0.149912  Biso 1.000000     N
    N   1.0     0.270881     0.907445     0.149913  Biso 1.000000     N
    N   1.0     0.770878     0.407447     0.149913  Biso 1.000000     N
    N   1.0     0.770877     0.907444     0.149914  Biso 1.000000     N
    N   1.0     0.160468     0.372318     0.197472  Biso 1.000000     N
    N   1.0     0.160465     0.872316     0.197471  Biso 1.000000     N
    N   1.0     0.660462     0.372318     0.197471  Biso 1.000000     N
    N   1.0     0.660461     0.872316     0.197472  Biso 1.000000     N
    N   1.0     0.360112     0.419817     0.337293  Biso 1.000000     N
    N   1.0     0.360113     0.919815     0.337297  Biso 1.000000     N
    N   1.0     0.860109     0.419816     0.337296  Biso 1.000000     N
    N   1.0     0.860102     0.919815     0.337291  Biso 1.000000     N
    N   1.0     0.000450     0.214152     0.019974  Biso 1.000000     N
    N   1.0     0.000447     0.714148     0.019975  Biso 1.000000     N
    N   1.0     0.500445     0.214151     0.019975  Biso 1.000000     N
    N   1.0     0.500443     0.714151     0.019974  Biso 1.000000     N
    N   1.0     0.074720     0.133417     0.960750  Biso 1.000000     N
    N   1.0     0.074716     0.633413     0.960750  Biso 1.000000     N
    N   1.0     0.574712     0.133414     0.960751  Biso 1.000000     N
    N   1.0     0.574711     0.633415     0.960749  Biso 1.000000     N
    N   1.0     0.405891     0.217794     0.941003  Biso 1.000000     N
    N   1.0     0.405888     0.717792     0.941003  Biso 1.000000     N
    N   1.0     0.905886     0.217794     0.941003  Biso 1.000000     N
    N   1.0     0.905883     0.717791     0.941003  Biso 1.000000     N
    N   1.0     0.021095     0.094089     0.850199  Biso 1.000000     N
    N   1.0     0.021091     0.594086     0.850199  Biso 1.000000     N
    N   1.0     0.521086     0.094086     0.850201  Biso 1.000000     N
    N   1.0     0.521085     0.594086     0.850200  Biso 1.000000     N
    N   1.0     0.410533     0.129034     0.802437  Biso 1.000000     N
    N   1.0     0.410530     0.629032     0.802438  Biso 1.000000     N
    N   1.0     0.910530     0.129035     0.802436  Biso 1.000000     N
    N   1.0     0.910527     0.629033     0.802436  Biso 1.000000     N
    N   1.0     0.110367     0.080176     0.663057  Biso 1.000000     N
    N   1.0     0.110365     0.580174     0.663058  Biso 1.000000     N
    N   1.0     0.610369     0.080176     0.663053  Biso 1.000000     N
    N   1.0     0.610362     0.580175     0.663055  Biso 1.000000     N
    O   1.0     0.021373     0.447253     0.665761  Biso 1.000000     O
    O   1.0     0.021371     0.947251     0.665761  Biso 1.000000     O
    O   1.0     0.521368     0.447253     0.665761  Biso 1.000000     O
    O   1.0     0.521365     0.947252     0.665761  Biso 1.000000     O
    O   1.0     0.437839     0.022923     0.693866  Biso 1.000000     O
    O   1.0     0.437837     0.522921     0.693866  Biso 1.000000     O
    O   1.0     0.937834     0.022923     0.693867  Biso 1.000000     O
    O   1.0     0.937832     0.522921     0.693867  Biso 1.000000     O
    O   1.0     0.271376     0.052900     0.334213  Biso 1.000000     O
    O   1.0     0.271373     0.552898     0.334214  Biso 1.000000     O
    O   1.0     0.771367     0.052902     0.334217  Biso 1.000000     O
    O   1.0     0.771366     0.552899     0.334215  Biso 1.000000     O
    O   1.0     0.187533     0.477617     0.306059  Biso 1.000000     O
    O   1.0     0.187531     0.977615     0.306059  Biso 1.000000     O
    O   1.0     0.687527     0.477618     0.306060  Biso 1.000000     O
    O   1.0     0.687523     0.977616     0.306062  Biso 1.000000     O
    O   1.0     0.021152     0.303301     0.166007  Biso 1.000000     O
    O   1.0     0.021153     0.803297     0.166010  Biso 1.000000     O
    O   1.0     0.521146     0.303301     0.166006  Biso 1.000000     O
    O   1.0     0.521142     0.803301     0.166005  Biso 1.000000     O
    O   1.0     0.437601     0.227565     0.193808  Biso 1.000000     O
    O   1.0     0.437598     0.727564     0.193806  Biso 1.000000     O
    O   1.0     0.937595     0.227566     0.193806  Biso 1.000000     O
    O   1.0     0.937594     0.727563     0.193808  Biso 1.000000     O
    O   1.0     0.271478     0.197187     0.834354  Biso 1.000000     O
    O   1.0     0.271474     0.697185     0.834356  Biso 1.000000     O
    O   1.0     0.771466     0.197184     0.834362  Biso 1.000000     O
    O   1.0     0.771469     0.697185     0.834356  Biso 1.000000     O
    O   1.0     0.187580     0.272633     0.806214  Biso 1.000000     O
    O   1.0     0.187576     0.772630     0.806216  Biso 1.000000     O
    O   1.0     0.687571     0.272631     0.806218  Biso 1.000000     O
    O   1.0     0.687572     0.772631     0.806215  Biso 1.000000     O
   Zn   1.0     0.065656     0.011014     0.599465  Biso 1.000000    Zn
   Zn   1.0     0.065654     0.511012     0.599465  Biso 1.000000    Zn
   Zn   1.0     0.565652     0.011013     0.599465  Biso 1.000000    Zn
   Zn   1.0     0.565649     0.511012     0.599465  Biso 1.000000    Zn
   Zn   1.0     0.315552     0.489077     0.400687  Biso 1.000000    Zn
   Zn   1.0     0.315551     0.989075     0.400688  Biso 1.000000    Zn
   Zn   1.0     0.815547     0.489077     0.400687  Biso 1.000000    Zn
   Zn   1.0     0.815544     0.989074     0.400687  Biso 1.000000    Zn
   Zn   1.0     0.065738     0.240566     0.099323  Biso 1.000000    Zn
   Zn   1.0     0.065736     0.740562     0.099323  Biso 1.000000    Zn
   Zn   1.0     0.565733     0.240565     0.099323  Biso 1.000000    Zn
   Zn   1.0     0.565731     0.740565     0.099323  Biso 1.000000    Zn
   Zn   1.0     0.315496     0.261015     0.900621  Biso 1.000000    Zn
   Zn   1.0     0.315494     0.761013     0.900621  Biso 1.000000    Zn
   Zn   1.0     0.815491     0.261015     0.900621  Biso 1.000000    Zn
   Zn   1.0     0.815489     0.761013     0.900621  Biso 1.000000    Zn
