#======================================================================

# CRYSTAL DATA

#----------------------------------------------------------------------

data_VESTA_phase_1


_pd_phase_name                         MOF
_cell_length_a                         12.51300
_cell_length_b                         14.76800
_cell_length_c                         14.75800
_cell_angle_alpha                      120.03900
_cell_angle_beta                       90.03500
_cell_angle_gamma                      90.04700
_symmetry_space_group_name_H-M         "P 1"
_symmetry_Int_Tables_number            1

loop_
_symmetry_equiv_pos_as_xyz
   "x, y, z"

loop_
   _atom_site_label
   _atom_site_occupancy
   _atom_site_fract_x
   _atom_site_fract_y
   _atom_site_fract_z
   _atom_site_adp_type
   _atom_site_B_iso_or_equiv
   _atom_site_type_symbol
    H   1.0     0.913078     0.659507     0.882553  Biso 1.000000     H
    H   1.0     0.908253     0.322196     0.714987  Biso 1.000000     H
    H   1.0     0.245486     0.222189     0.339715  Biso 1.000000     H
    H   1.0     0.244462     0.392861     0.677341  Biso 1.000000     H
    H   1.0     0.579890     0.115726     0.781086  Biso 1.000000     H
    H   1.0     0.576955     0.282089     0.610287  Biso 1.000000     H
    H   1.0     0.912724     0.340174     0.117756  Biso 1.000000     H
    H   1.0     0.908863     0.677454     0.283730  Biso 1.000000     H
    H   1.0     0.245169     0.777478     0.660291  Biso 1.000000     H
    H   1.0     0.243129     0.607713     0.322648  Biso 1.000000     H
    H   1.0     0.579900     0.884010     0.219380  Biso 1.000000     H
    H   1.0     0.576965     0.717683     0.390234  Biso 1.000000     H
    H   1.0     0.420000     0.779895     0.115389  Biso 1.000000     H
    H   1.0     0.422929     0.609969     0.282597  Biso 1.000000     H
    H   1.0     0.086935     0.882670     0.660092  Biso 1.000000     H
    H   1.0     0.090712     0.716506     0.322576  Biso 1.000000     H
    H   1.0     0.753934     0.340058     0.222433  Biso 1.000000     H
    H   1.0     0.755819     0.677438     0.391949  Biso 1.000000     H
    H   1.0     0.419879     0.219296     0.884593  Biso 1.000000     H
    H   1.0     0.422897     0.389324     0.717470  Biso 1.000000     H
    H   1.0     0.086745     0.117592     0.340369  Biso 1.000000     H
    H   1.0     0.091432     0.284769     0.677898  Biso 1.000000     H
    H   1.0     0.754535     0.660337     0.777810  Biso 1.000000     H
    H   1.0     0.755324     0.322935     0.606864  Biso 1.000000     H
    C   1.0     0.877068     0.586857     0.822505  Biso 1.000000     C
    C   1.0     0.920003     0.491082     0.803953  Biso 1.000000     C
    C   1.0     0.875299     0.395726     0.727230  Biso 1.000000     C
    C   1.0     0.011948     0.491117     0.867404  Biso 1.000000     C
    C   1.0     0.210295     0.235178     0.412758  Biso 1.000000     C
    C   1.0     0.254434     0.312389     0.508197  Biso 1.000000     C
    C   1.0     0.210776     0.331576     0.604013  Biso 1.000000     C
    C   1.0     0.346542     0.374914     0.507034  Biso 1.000000     C
    C   1.0     0.543919     0.175272     0.767868  Biso 1.000000     C
    C   1.0     0.587864     0.193740     0.690813  Biso 1.000000     C
    C   1.0     0.543356     0.269906     0.671410  Biso 1.000000     C
    C   1.0     0.680756     0.130759     0.629043  Biso 1.000000     C
    C   1.0     0.876878     0.412987     0.177440  Biso 1.000000     C
    C   1.0     0.920114     0.508556     0.195531  Biso 1.000000     C
    C   1.0     0.875651     0.604094     0.271838  Biso 1.000000     C
    C   1.0     0.011982     0.508256     0.131981  Biso 1.000000     C
    C   1.0     0.209815     0.764773     0.587362  Biso 1.000000     C
    C   1.0     0.253471     0.687650     0.491774  Biso 1.000000     C
    C   1.0     0.209701     0.668886     0.396063  Biso 1.000000     C
    C   1.0     0.345253     0.624706     0.492522  Biso 1.000000     C
    C   1.0     0.543943     0.824360     0.232502  Biso 1.000000     C
    C   1.0     0.587858     0.806049     0.309698  Biso 1.000000     C
    C   1.0     0.543378     0.729763     0.329015  Biso 1.000000     C
    C   1.0     0.680726     0.869320     0.371662  Biso 1.000000     C
    C   1.0     0.455978     0.767001     0.175205  Biso 1.000000     C
    C   1.0     0.412051     0.690065     0.193840  Biso 1.000000     C
    C   1.0     0.456559     0.671032     0.270337  Biso 1.000000     C
    C   1.0     0.319166     0.628036     0.130664  Biso 1.000000     C
    C   1.0     0.122614     0.822785     0.587257  Biso 1.000000     C
    C   1.0     0.079492     0.804716     0.491578  Biso 1.000000     C
    C   1.0     0.123766     0.728239     0.395979  Biso 1.000000     C
    C   1.0     0.987776     0.868316     0.491795  Biso 1.000000     C
    C   1.0     0.789319     0.412938     0.235166  Biso 1.000000     C
    C   1.0     0.745341     0.508448     0.312004  Biso 1.000000     C
    C   1.0     0.789316     0.604040     0.330876  Biso 1.000000     C
    C   1.0     0.653049     0.507642     0.374470  Biso 1.000000     C
    C   1.0     0.455885     0.232336     0.824905  Biso 1.000000     C
    C   1.0     0.411945     0.309162     0.806182  Biso 1.000000     C
    C   1.0     0.456502     0.328369     0.729850  Biso 1.000000     C
    C   1.0     0.319064     0.370976     0.869142  Biso 1.000000     C
    C   1.0     0.122780     0.177503     0.413101  Biso 1.000000     C
    C   1.0     0.079788     0.195982     0.508893  Biso 1.000000     C
    C   1.0     0.124461     0.272602     0.604366  Biso 1.000000     C
    C   1.0     0.987842     0.132545     0.508823  Biso 1.000000     C
    C   1.0     0.789644     0.587292     0.764742  Biso 1.000000     C
    C   1.0     0.745465     0.491976     0.687427  Biso 1.000000     C
    C   1.0     0.789038     0.396181     0.668217  Biso 1.000000     C
    C   1.0     0.653430     0.493176     0.624775  Biso 1.000000     C
    O   1.0     0.069920     0.572699     0.917752  Biso 1.000000     O
    O   1.0     0.032691     0.409713     0.873848  Biso 1.000000     O
    O   1.0     0.402586     0.343893     0.424495  Biso 1.000000     O
    O   1.0     0.369513     0.462252     0.588750  Biso 1.000000     O
    O   1.0     0.736619     0.079678     0.660169  Biso 1.000000     O
    O   1.0     0.703925     0.126299     0.542067  Biso 1.000000     O
    O   1.0     0.069716     0.426622     0.081798  Biso 1.000000     O
    O   1.0     0.032852     0.589532     0.125306  Biso 1.000000     O
    O   1.0     0.402726     0.656029     0.574331  Biso 1.000000     O
    O   1.0     0.366418     0.536755     0.410996  Biso 1.000000     O
    O   1.0     0.736555     0.920520     0.340594  Biso 1.000000     O
    O   1.0     0.703937     0.873953     0.458719  Biso 1.000000     O
    O   1.0     0.263324     0.658889     0.079274  Biso 1.000000     O
    O   1.0     0.296014     0.541159     0.126302  Biso 1.000000     O
    O   1.0     0.930048     0.918456     0.573485  Biso 1.000000     O
    O   1.0     0.967077     0.874919     0.410411  Biso 1.000000     O
    O   1.0     0.597059     0.425056     0.343877  Biso 1.000000     O
    O   1.0     0.629888     0.589718     0.461315  Biso 1.000000     O
    O   1.0     0.263178     0.340060     0.920430  Biso 1.000000     O
    O   1.0     0.295971     0.457809     0.873425  Biso 1.000000     O
    O   1.0     0.929920     0.082258     0.427147  Biso 1.000000     O
    O   1.0     0.967153     0.126114     0.590297  Biso 1.000000     O
    O   1.0     0.597607     0.575716     0.655438  Biso 1.000000     O
    O   1.0     0.630348     0.411324     0.537571  Biso 1.000000     O
   In   1.0     0.166647     0.499461    -0.000287  Biso 1.000000    In
   In   1.0     0.499644     0.500216     0.499482  Biso 1.000000    In
   In   1.0     0.833292     0.000405     0.500421  Biso 1.000000    In
