#======================================================================

# CRYSTAL DATA

#----------------------------------------------------------------------

data_VESTA_phase_1


_pd_phase_name                         MOF
_cell_length_a                         12.48900
_cell_length_b                         15.68200
_cell_length_c                         15.68700
_cell_angle_alpha                      120.01000
_cell_angle_beta                       90.01100
_cell_angle_gamma                      89.90800
_symmetry_space_group_name_H-M         "P 1"
_symmetry_Int_Tables_number            1

loop_
_symmetry_equiv_pos_as_xyz
   "x, y, z"

loop_
   _atom_site_label
   _atom_site_occupancy
   _atom_site_fract_x
   _atom_site_fract_y
   _atom_site_fract_z
   _atom_site_adp_type
   _atom_site_B_iso_or_equiv
   _atom_site_type_symbol
    H   1.0     0.093993     0.725183     0.603841  Biso 1.000000     H
    H   1.0     0.593981     0.725175     0.603828  Biso 1.000000     H
    H   1.0     0.209526     0.589075     0.592406  Biso 1.000000     H
    H   1.0     0.709521     0.589077     0.592409  Biso 1.000000     H
    H   1.0     0.454915     0.660655     0.460043  Biso 1.000000     H
    H   1.0     0.954910     0.660654     0.460044  Biso 1.000000     H
    H   1.0     0.350858     0.801761     0.471278  Biso 1.000000     H
    H   1.0     0.850846     0.801750     0.471262  Biso 1.000000     H
    H   1.0     0.260737     0.879054     0.274815  Biso 1.000000     H
    H   1.0     0.760729     0.879055     0.274813  Biso 1.000000     H
    H   1.0     0.376267     0.000000     0.410547  Biso 1.000000     H
    H   1.0     0.876258     0.000000     0.410547  Biso 1.000000     H
    H   1.0     0.121509     0.798802     0.338825  Biso 1.000000     H
    H   1.0     0.621501     0.798801     0.338825  Biso 1.000000     H
    H   1.0     0.017420     0.669075     0.198113  Biso 1.000000     H
    H   1.0     0.517411     0.669073     0.198115  Biso 1.000000     H
    H   1.0     0.427003     0.396159     0.121238  Biso 1.000000     H
    H   1.0     0.926993     0.396163     0.121239  Biso 1.000000     H
    H   1.0     0.042266     0.407944    -0.003125  Biso 1.000000     H
    H   1.0     0.542257     0.407946    -0.003125  Biso 1.000000     H
    H   1.0     0.287615     0.539855     0.200982  Biso 1.000000     H
    H   1.0     0.787607     0.539854     0.200981  Biso 1.000000     H
    H   1.0     0.183795     0.528280     0.330548  Biso 1.000000     H
    H   1.0     0.683791     0.528272     0.330545  Biso 1.000000     H
    H   1.0     0.094204     0.274815     0.395872  Biso 1.000000     H
    H   1.0     0.594193     0.274820     0.395882  Biso 1.000000     H
    H   1.0     0.209756     0.410586     0.407314  Biso 1.000000     H
    H   1.0     0.709751     0.410583     0.407312  Biso 1.000000     H
    H   1.0     0.454597     0.338806     0.540351  Biso 1.000000     H
    H   1.0     0.954591     0.338806     0.540352  Biso 1.000000     H
    H   1.0     0.350507     0.198003     0.529138  Biso 1.000000     H
    H   1.0     0.850495     0.198011     0.529152  Biso 1.000000     H
    H   1.0     0.260829     0.121422     0.725264  Biso 1.000000     H
    H   1.0     0.760823     0.121419     0.725268  Biso 1.000000     H
    H   1.0     0.376352    -0.003181     0.589163  Biso 1.000000     H
    H   1.0     0.876342    -0.003181     0.589161  Biso 1.000000     H
    H   1.0     0.121429     0.200952     0.660889  Biso 1.000000     H
    H   1.0     0.621422     0.200952     0.660890  Biso 1.000000     H
    H   1.0     0.017390     0.330751     0.801993  Biso 1.000000     H
    H   1.0     0.517378     0.330754     0.801988  Biso 1.000000     H
    H   1.0     0.426680     0.603932     0.878822  Biso 1.000000     H
    H   1.0     0.926671     0.603928     0.878821  Biso 1.000000     H
    H   1.0     0.041942     0.592519     0.000000  Biso 1.000000     H
    H   1.0     0.541933     0.592518     0.000000  Biso 1.000000     H
    H   1.0     0.288041     0.460669     0.799702  Biso 1.000000     H
    H   1.0     0.788033     0.460671     0.799703  Biso 1.000000     H
    H   1.0     0.184195     0.471806     0.669854  Biso 1.000000     H
    H   1.0     0.684189     0.471812     0.669856  Biso 1.000000     H
    C   1.0     0.144068     0.853166     0.538738  Biso 1.000000     C
    C   1.0     0.644057     0.853157     0.538725  Biso 1.000000     C
    C   1.0     0.213092     0.773070     0.536914  Biso 1.000000     C
    C   1.0     0.713079     0.773060     0.536900  Biso 1.000000     C
    C   1.0     0.173839     0.712745     0.571932  Biso 1.000000     C
    C   1.0     0.673833     0.712743     0.571930  Biso 1.000000     C
    C   1.0     0.237482     0.636960     0.565350  Biso 1.000000     C
    C   1.0     0.737472     0.636953     0.565340  Biso 1.000000     C
    C   1.0     0.374704     0.677281     0.491378  Biso 1.000000     C
    C   1.0     0.874693     0.677275     0.491368  Biso 1.000000     C
    C   1.0     0.316293     0.755229     0.497139  Biso 1.000000     C
    C   1.0     0.816285     0.755228     0.497137  Biso 1.000000     C
    C   1.0     0.310724     0.685671     0.146979  Biso 1.000000     C
    C   1.0     0.810717     0.685672     0.146977  Biso 1.000000     C
    C   1.0     0.379733     0.763825     0.226879  Biso 1.000000     C
    C   1.0     0.879726     0.763826     0.226877  Biso 1.000000     C
    C   1.0     0.340546     0.859353     0.287134  Biso 1.000000     C
    C   1.0     0.840537     0.859353     0.287133  Biso 1.000000     C
    C   1.0     0.404190     0.928447     0.362725  Biso 1.000000     C
    C   1.0     0.904182     0.928449     0.362723  Biso 1.000000     C
    C   1.0     0.041320     0.813718     0.322338  Biso 1.000000     C
    C   1.0     0.541311     0.813715     0.322339  Biso 1.000000     C
    C   1.0     0.482886     0.741618     0.244587  Biso 1.000000     C
    C   1.0     0.982878     0.741619     0.244587  Biso 1.000000     C
    C   1.0     0.477235     0.460832     0.314294  Biso 1.000000     C
    C   1.0     0.977225     0.460835     0.314296  Biso 1.000000     C
    C   1.0     0.046094     0.462818     0.236130  Biso 1.000000     C
    C   1.0     0.546089     0.462812     0.236128  Biso 1.000000     C
    C   1.0     0.006794     0.428040     0.140821  Biso 1.000000     C
    C   1.0     0.506784     0.428043     0.140822  Biso 1.000000     C
    C   1.0     0.070311     0.434806     0.071769  Biso 1.000000     C
    C   1.0     0.570304     0.434801     0.071767  Biso 1.000000     C
    C   1.0     0.207478     0.508537     0.186163  Biso 1.000000     C
    C   1.0     0.707473     0.508531     0.186160  Biso 1.000000     C
    C   1.0     0.149195     0.502583     0.258186  Biso 1.000000     C
    C   1.0     0.649186     0.502585     0.258185  Biso 1.000000     C
    C   1.0     0.144081     0.146774     0.461151  Biso 1.000000     C
    C   1.0     0.644070     0.146779     0.461162  Biso 1.000000     C
    C   1.0     0.213036     0.226793     0.463106  Biso 1.000000     C
    C   1.0     0.713023     0.226800     0.463117  Biso 1.000000     C
    C   1.0     0.173928     0.287122     0.427936  Biso 1.000000     C
    C   1.0     0.673922     0.287122     0.427937  Biso 1.000000     C
    C   1.0     0.237585     0.362733     0.434522  Biso 1.000000     C
    C   1.0     0.737576     0.362737     0.434530  Biso 1.000000     C
    C   1.0     0.374495     0.322311     0.508888  Biso 1.000000     C
    C   1.0     0.874485     0.322314     0.508897  Biso 1.000000     C
    C   1.0     0.316066     0.244525     0.503123  Biso 1.000000     C
    C   1.0     0.816058     0.244524     0.503125  Biso 1.000000     C
    C   1.0     0.310692     0.314539     0.853324  Biso 1.000000     C
    C   1.0     0.810686     0.314536     0.853328  Biso 1.000000     C
    C   1.0     0.379755     0.236332     0.773228  Biso 1.000000     C
    C   1.0     0.879749     0.236329     0.773232  Biso 1.000000     C
    C   1.0     0.340603     0.140949     0.712860  Biso 1.000000     C
    C   1.0     0.840594     0.140949     0.712860  Biso 1.000000     C
    C   1.0     0.404228     0.071792     0.637064  Biso 1.000000     C
    C   1.0     0.904221     0.071790     0.637067  Biso 1.000000     C
    C   1.0     0.041279     0.186192     0.677470  Biso 1.000000     C
    C   1.0     0.541269     0.186195     0.677467  Biso 1.000000     C
    C   1.0     0.482866     0.258340     0.755430  Biso 1.000000     C
    C   1.0     0.982858     0.258339     0.755430  Biso 1.000000     C
    C   1.0     0.477243     0.538872     0.685731  Biso 1.000000     C
    C   1.0     0.977234     0.538870     0.685730  Biso 1.000000     C
    C   1.0     0.046126     0.537214     0.764076  Biso 1.000000     C
    C   1.0     0.546120     0.537219     0.764077  Biso 1.000000     C
    C   1.0     0.006635     0.572130     0.859378  Biso 1.000000     C
    C   1.0     0.506625     0.572128     0.859377  Biso 1.000000     C
    C   1.0     0.070166     0.565594     0.928587  Biso 1.000000     C
    C   1.0     0.570159     0.565598     0.928587  Biso 1.000000     C
    C   1.0     0.207744     0.491893     0.814386  Biso 1.000000     C
    C   1.0     0.707737     0.491898     0.814388  Biso 1.000000     C
    C   1.0     0.149444     0.497593     0.742202  Biso 1.000000     C
    C   1.0     0.649435     0.497593     0.742202  Biso 1.000000     C
    N   1.0     0.336197     0.618489     0.524311  Biso 1.000000     N
    N   1.0     0.836186     0.618481     0.524298  Biso 1.000000     N
    N   1.0     0.002865     0.905616     0.381074  Biso 1.000000     N
    N   1.0     0.502856     0.905613     0.381076  Biso 1.000000     N
    N   1.0     0.168954     0.475803     0.094461  Biso 1.000000     N
    N   1.0     0.668949     0.475796     0.094458  Biso 1.000000     N
    N   1.0     0.336154     0.381058     0.475738  Biso 1.000000     N
    N   1.0     0.836144     0.381063     0.475749  Biso 1.000000     N
    N   1.0     0.002851     0.094438     0.618624  Biso 1.000000     N
    N   1.0     0.502840     0.094441     0.618620  Biso 1.000000     N
    N   1.0     0.169023     0.524712     0.906067  Biso 1.000000     N
    N   1.0     0.669016     0.524718     0.906069  Biso 1.000000     N
    O   1.0     0.194618     0.913403     0.518443  Biso 1.000000     O
    O   1.0     0.694610     0.913403     0.518443  Biso 1.000000     O
    O   1.0     0.046366     0.855336     0.555309  Biso 1.000000     O
    O   1.0     0.546359     0.855340     0.555315  Biso 1.000000     O
    O   1.0     0.361269     0.604968     0.086657  Biso 1.000000     O
    O   1.0     0.861260     0.604968     0.086657  Biso 1.000000     O
    O   1.0     0.213033     0.700288     0.144924  Biso 1.000000     O
    O   1.0     0.713024     0.700287     0.144926  Biso 1.000000     O
    O   1.0     0.027909     0.480792     0.394718  Biso 1.000000     O
    O   1.0     0.527901     0.480795     0.394718  Biso 1.000000     O
    O   1.0     0.379535     0.444461     0.299928  Biso 1.000000     O
    O   1.0     0.879527     0.444457     0.299926  Biso 1.000000     O
    O   1.0     0.194671     0.086324     0.481285  Biso 1.000000     O
    O   1.0     0.694664     0.086323     0.481285  Biso 1.000000     O
    O   1.0     0.046394     0.144784     0.444594  Biso 1.000000     O
    O   1.0     0.546387     0.144780     0.444589  Biso 1.000000     O
    O   1.0     0.361167     0.395075     0.913711  Biso 1.000000     O
    O   1.0     0.861159     0.395075     0.913710  Biso 1.000000     O
    O   1.0     0.213031     0.300058     0.855413  Biso 1.000000     O
    O   1.0     0.713023     0.300059     0.855409  Biso 1.000000     O
    O   1.0     0.027939     0.518460     0.605171  Biso 1.000000     O
    O   1.0     0.527931     0.518459     0.605170  Biso 1.000000     O
    O   1.0     0.379513     0.555446     0.700105  Biso 1.000000     O
    O   1.0     0.879506     0.555449     0.700106  Biso 1.000000     O
   Zn   1.0     0.425615     0.499587     0.499952  Biso 1.000000    Zn
   Zn   1.0     0.925607     0.499586     0.499952  Biso 1.000000    Zn
   Zn   1.0     0.092235    -0.000070     0.499751  Biso 1.000000    Zn
   Zn   1.0     0.592227    -0.000071     0.499752  Biso 1.000000    Zn
   Zn   1.0     0.258680     0.500226     0.000299  Biso 1.000000    Zn
   Zn   1.0     0.758672     0.500226     0.000299  Biso 1.000000    Zn
