#======================================================================

# CRYSTAL DATA

#----------------------------------------------------------------------

data_VESTA_phase_1


_pd_phase_name                         MOF
_cell_length_a                         20.64900
_cell_length_b                         13.70900
_cell_length_c                         14.91200
_cell_angle_alpha                      89.98300
_cell_angle_beta                       90.00000
_cell_angle_gamma                      90.33000
_symmetry_space_group_name_H-M         "P 1"
_symmetry_Int_Tables_number            1

loop_
_symmetry_equiv_pos_as_xyz
   "x, y, z"

loop_
   _atom_site_label
   _atom_site_occupancy
   _atom_site_fract_x
   _atom_site_fract_y
   _atom_site_fract_z
   _atom_site_adp_type
   _atom_site_B_iso_or_equiv
   _atom_site_type_symbol
    O   1.0     0.078269     0.366779     0.813571  Biso 1.000000     O
    O   1.0     0.578284     0.366850     0.813159  Biso 1.000000     O
    O   1.0     0.094956     0.374179     0.980445  Biso 1.000000     O
    O   1.0     0.594837     0.372200     0.980076  Biso 1.000000     O
    O   1.0     0.116637     0.521132     0.886918  Biso 1.000000     O
    O   1.0     0.616751     0.520368     0.887740  Biso 1.000000     O
    O   1.0     0.206192     0.661564     0.882985  Biso 1.000000     O
    O   1.0     0.706251     0.661379     0.882891  Biso 1.000000     O
    O   1.0     0.252797     0.829239     0.843908  Biso 1.000000     O
    O   1.0     0.752679     0.829316     0.843787  Biso 1.000000     O
    O   1.0     0.264094     0.765640     0.999451  Biso 1.000000     O
    O   1.0     0.763921     0.765645     0.999377  Biso 1.000000     O
    O   1.0     0.325521     0.687702     0.871387  Biso 1.000000     O
    O   1.0     0.825600     0.688222     0.871286  Biso 1.000000     O
    O   1.0     0.460989     0.648551     0.847298  Biso 1.000000     O
    O   1.0     0.961013     0.645071     0.847090  Biso 1.000000     O
    O   1.0     0.497304     0.515994     0.741093  Biso 1.000000     O
    O   1.0     0.999586     0.516446     0.738070  Biso 1.000000     O
    O   1.0     0.480653     0.683937     0.683796  Biso 1.000000     O
    O   1.0     0.980137     0.684896     0.684324  Biso 1.000000     O
    O   1.0     0.074504     0.652680     0.787664  Biso 1.000000     O
    O   1.0     0.574545     0.650696     0.787725  Biso 1.000000     O
    O   1.0     0.133053     0.508668     0.116708  Biso 1.000000     O
    O   1.0     0.631147     0.507840     0.116616  Biso 1.000000     O
    O   1.0     0.092296     0.636241     0.010179  Biso 1.000000     O
    O   1.0     0.592106     0.636340     0.010067  Biso 1.000000     O
    O   1.0     0.061212     0.645406     0.172087  Biso 1.000000     O
    O   1.0     0.561067     0.646081     0.172039  Biso 1.000000     O
    O   1.0     0.175782     0.678927     0.128753  Biso 1.000000     O
    O   1.0     0.675994     0.677070     0.128640  Biso 1.000000     O
    O   1.0     0.191320     0.376032     0.875191  Biso 1.000000     O
    O   1.0     0.691324     0.375232     0.874964  Biso 1.000000     O
    O   1.0     0.172281     0.133071     0.312844  Biso 1.000000     O
    O   1.0     0.672225     0.133091     0.312734  Biso 1.000000     O
    O   1.0     0.155693     0.127812     0.479977  Biso 1.000000     O
    O   1.0     0.655683     0.128218     0.479809  Biso 1.000000     O
    O   1.0     0.135692     0.979071     0.387693  Biso 1.000000     O
    O   1.0     0.635666     0.979220     0.387690  Biso 1.000000     O
    O   1.0     0.044903     0.839732     0.382627  Biso 1.000000     O
    O   1.0     0.544610     0.840205     0.382683  Biso 1.000000     O
    O   1.0     0.499768     0.671176     0.343514  Biso 1.000000     O
    O   1.0     0.999565     0.671175     0.343275  Biso 1.000000     O
    O   1.0     0.488457     0.733950     0.499130  Biso 1.000000     O
    O   1.0     0.988167     0.734000     0.498919  Biso 1.000000     O
    O   1.0     0.425393     0.810301     0.371830  Biso 1.000000     O
    O   1.0     0.925626     0.811166     0.371524  Biso 1.000000     O
    O   1.0     0.290942     0.854992     0.347375  Biso 1.000000     O
    O   1.0     0.790947     0.855010     0.347021  Biso 1.000000     O
    O   1.0     0.252120     0.982725     0.237880  Biso 1.000000     O
    O   1.0     0.752469     0.983165     0.237693  Biso 1.000000     O
    O   1.0     0.271818     0.813496     0.185318  Biso 1.000000     O
    O   1.0     0.771555     0.813708     0.184878  Biso 1.000000     O
    O   1.0     0.177444     0.846144     0.288766  Biso 1.000000     O
    O   1.0     0.677328     0.847352     0.288126  Biso 1.000000     O
    O   1.0     0.119185     0.992295     0.616896  Biso 1.000000     O
    O   1.0     0.621822     0.992207     0.617084  Biso 1.000000     O
    O   1.0     0.158694     0.864224     0.510939  Biso 1.000000     O
    O   1.0     0.658495     0.862767     0.510320  Biso 1.000000     O
    O   1.0     0.189377     0.854468     0.673364  Biso 1.000000     O
    O   1.0     0.689543     0.850947     0.672395  Biso 1.000000     O
    O   1.0     0.074836     0.822702     0.629128  Biso 1.000000     O
    O   1.0     0.574346     0.824629     0.629123  Biso 1.000000     O
    O   1.0     0.059216     0.122310     0.375172  Biso 1.000000     O
    O   1.0     0.559169     0.122440     0.375131  Biso 1.000000     O
    O   1.0     0.422227     0.633118     0.187487  Biso 1.000000     O
    O   1.0     0.922304     0.633073     0.187168  Biso 1.000000     O
    O   1.0     0.405771     0.628038     0.020415  Biso 1.000000     O
    O   1.0     0.905734     0.627431     0.019985  Biso 1.000000     O
    O   1.0     0.385692     0.479064     0.112678  Biso 1.000000     O
    O   1.0     0.885567     0.478970     0.112599  Biso 1.000000     O
    O   1.0     0.295540     0.338190     0.116432  Biso 1.000000     O
    O   1.0     0.794629     0.339535     0.117102  Biso 1.000000     O
    O   1.0     0.249272     0.170807     0.156590  Biso 1.000000     O
    O   1.0     0.748964     0.171442     0.156792  Biso 1.000000     O
    O   1.0     0.236637     0.233592     0.001001  Biso 1.000000     O
    O   1.0     0.736806     0.234241     0.001249  Biso 1.000000     O
    O   1.0     0.176046     0.312011     0.128979  Biso 1.000000     O
    O   1.0     0.675195     0.311881     0.128967  Biso 1.000000     O
    O   1.0     0.041151     0.354995     0.152805  Biso 1.000000     O
    O   1.0     0.539427     0.354615     0.152452  Biso 1.000000     O
    O   1.0     0.002166     0.482831     0.262049  Biso 1.000000     O
    O   1.0     0.502639     0.483353     0.262342  Biso 1.000000     O
    O   1.0     0.021769     0.313646     0.314879  Biso 1.000000     O
    O   1.0     0.521821     0.313960     0.315248  Biso 1.000000     O
    O   1.0     0.426473     0.348122     0.213914  Biso 1.000000     O
    O   1.0     0.927531     0.346111     0.211197  Biso 1.000000     O
    O   1.0     0.371991     0.492095     0.883278  Biso 1.000000     O
    O   1.0     0.869074     0.492116     0.882986  Biso 1.000000     O
    O   1.0     0.410512     0.363804     0.990477  Biso 1.000000     O
    O   1.0     0.908579     0.364459     0.989338  Biso 1.000000     O
    O   1.0     0.439309     0.350704     0.827627  Biso 1.000000     O
    O   1.0     0.939304     0.354101     0.827078  Biso 1.000000     O
    O   1.0     0.324695     0.324326     0.874413  Biso 1.000000     O
    O   1.0     0.824735     0.322306     0.871215  Biso 1.000000     O
    O   1.0     0.309180     0.622240     0.124946  Biso 1.000000     O
    O   1.0     0.809284     0.622447     0.124861  Biso 1.000000     O
    O   1.0     0.328211     0.866853     0.686686  Biso 1.000000     O
    O   1.0     0.828367     0.866826     0.686731  Biso 1.000000     O
    O   1.0     0.344791     0.874222     0.519713  Biso 1.000000     O
    O   1.0     0.844916     0.873555     0.519697  Biso 1.000000     O
    O   1.0     0.366830     0.020915     0.613176  Biso 1.000000     O
    O   1.0     0.866789     0.020677     0.612823  Biso 1.000000     O
    O   1.0     0.456043     0.161731     0.617082  Biso 1.000000     O
    O   1.0     0.956243     0.161344     0.617051  Biso 1.000000     O
    O   1.0     0.002651     0.329161     0.656193  Biso 1.000000     O
    O   1.0     0.502716     0.329295     0.656293  Biso 1.000000     O
    O   1.0     0.014020     0.265638     0.500614  Biso 1.000000     O
    O   1.0     0.514061     0.265811     0.500703  Biso 1.000000     O
    O   1.0     0.075585     0.188135     0.628776  Biso 1.000000     O
    O   1.0     0.575391     0.187690     0.628758  Biso 1.000000     O
    O   1.0     0.211036     0.145324     0.652745  Biso 1.000000     O
    O   1.0     0.710950     0.148498     0.652779  Biso 1.000000     O
    O   1.0     0.249792     0.017208     0.762048  Biso 1.000000     O
    O   1.0     0.747428     0.015968     0.758997  Biso 1.000000     O
    O   1.0     0.230520     0.186274     0.815114  Biso 1.000000     O
    O   1.0     0.730532     0.183741     0.816299  Biso 1.000000     O
    O   1.0     0.324577     0.153720     0.711576  Biso 1.000000     O
    O   1.0     0.824496     0.150891     0.712325  Biso 1.000000     O
    O   1.0     0.383285     0.007977     0.382789  Biso 1.000000     O
    O   1.0     0.882974     0.008372     0.383296  Biso 1.000000     O
    O   1.0     0.342063     0.134053     0.489563  Biso 1.000000     O
    O   1.0     0.842296     0.135880     0.489845  Biso 1.000000     O
    O   1.0     0.311329     0.144989     0.327654  Biso 1.000000     O
    O   1.0     0.811233     0.145361     0.327920  Biso 1.000000     O
    O   1.0     0.425764     0.178630     0.371508  Biso 1.000000     O
    O   1.0     0.925806     0.178658     0.371305  Biso 1.000000     O
    O   1.0     0.441194     0.875274     0.624855  Biso 1.000000     O
    O   1.0     0.941377     0.875436     0.624792  Biso 1.000000     O
    F   1.0     0.105287     0.782784     0.906134  Biso 1.000000     F
    F   1.0     0.605265     0.782374     0.905987  Biso 1.000000     F
    F   1.0     0.144751     0.717518     0.409769  Biso 1.000000     F
    F   1.0     0.644714     0.717381     0.406067  Biso 1.000000     F
    F   1.0     0.397417     0.217551     0.094018  Biso 1.000000     F
    F   1.0     0.894712     0.217476     0.090269  Biso 1.000000     F
    F   1.0     0.355292     0.282461     0.590113  Biso 1.000000     F
    F   1.0     0.855254     0.282428     0.593969  Biso 1.000000     F
   Al   1.0     0.119476     0.660023     0.894146  Biso 1.000000    Al
   Al   1.0     0.619502     0.659578     0.894089  Biso 1.000000    Al
   Al   1.0     0.112240     0.385878     0.096085  Biso 1.000000    Al
   Al   1.0     0.610939     0.384885     0.095963  Biso 1.000000    Al
   Al   1.0     0.254947     0.720054     0.108654  Biso 1.000000    Al
   Al   1.0     0.754789     0.719825     0.108524  Biso 1.000000    Al
   Al   1.0     0.004169     0.390402     0.757968  Biso 1.000000    Al
   Al   1.0     0.503650     0.389692     0.758603  Biso 1.000000    Al
   Al   1.0     0.131725     0.840283     0.394632  Biso 1.000000    Al
   Al   1.0     0.631506     0.840472     0.393982  Biso 1.000000    Al
   Al   1.0     0.139766     0.115107     0.595901  Biso 1.000000    Al
   Al   1.0     0.640116     0.115640     0.595815  Biso 1.000000    Al
   Al   1.0     0.496421     0.779136     0.608473  Biso 1.000000    Al
   Al   1.0     0.996408     0.779085     0.608246  Biso 1.000000    Al
   Al   1.0     0.246731     0.108709     0.258004  Biso 1.000000    Al
   Al   1.0     0.746801     0.109147     0.258087  Biso 1.000000    Al
   Al   1.0     0.382452     0.340056     0.106405  Biso 1.000000    Al
   Al   1.0     0.881536     0.340161     0.105521  Biso 1.000000    Al
   Al   1.0     0.390217     0.615621     0.904386  Biso 1.000000    Al
   Al   1.0     0.889708     0.614935     0.904070  Biso 1.000000    Al
   Al   1.0     0.246251     0.279664     0.892143  Biso 1.000000    Al
   Al   1.0     0.746206     0.278706     0.891835  Biso 1.000000    Al
   Al   1.0     0.496885     0.609353     0.242062  Biso 1.000000    Al
   Al   1.0     0.996842     0.608911     0.241946  Biso 1.000000    Al
   Al   1.0     0.369394     0.160031     0.605226  Biso 1.000000    Al
   Al   1.0     0.869493     0.159694     0.605869  Biso 1.000000    Al
   Al   1.0     0.362093     0.885385     0.404064  Biso 1.000000    Al
   Al   1.0     0.862037     0.885632     0.404004  Biso 1.000000    Al
   Al   1.0     0.004925     0.220043     0.391413  Biso 1.000000    Al
   Al   1.0     0.504898     0.220108     0.391595  Biso 1.000000    Al
   Al   1.0     0.254221     0.891100     0.742399  Biso 1.000000    Al
   Al   1.0     0.753788     0.889743     0.741483  Biso 1.000000    Al
    P   1.0     0.115639     0.617628     0.107137  Biso 1.000000     P
    P   1.0     0.615200     0.617216     0.107060  Biso 1.000000     P
    P   1.0     0.121121     0.409577     0.888654  Biso 1.000000     P
    P   1.0     0.621112     0.408740     0.888684  Biso 1.000000     P
    P   1.0     0.260913     0.735602     0.899473  Biso 1.000000     P
    P   1.0     0.760842     0.735679     0.899375  Biso 1.000000     P
    P   1.0     0.003910     0.624794     0.764413  Biso 1.000000     P
    P   1.0     0.503510     0.624818     0.765045  Biso 1.000000     P
    P   1.0     0.135441     0.882988     0.607951  Biso 1.000000     P
    P   1.0     0.635946     0.882304     0.607420  Biso 1.000000     P
    P   1.0     0.129861     0.090491     0.388612  Biso 1.000000     P
    P   1.0     0.629826     0.090627     0.388560  Biso 1.000000     P
    P   1.0     0.490828     0.764444     0.399249  Biso 1.000000     P
    P   1.0     0.990792     0.764498     0.399027  Biso 1.000000     P
    P   1.0     0.247821     0.874390     0.264830  Biso 1.000000     P
    P   1.0     0.747921     0.874824     0.264456  Biso 1.000000     P
    P   1.0     0.386511     0.382383     0.893765  Biso 1.000000     P
    P   1.0     0.885286     0.382807     0.892288  Biso 1.000000     P
    P   1.0     0.379867     0.590551     0.111686  Biso 1.000000     P
    P   1.0     0.879876     0.590444     0.111467  Biso 1.000000     P
    P   1.0     0.240649     0.264140     0.100773  Biso 1.000000     P
    P   1.0     0.740149     0.264808     0.101066  Biso 1.000000     P
    P   1.0     0.497467     0.375005     0.236020  Biso 1.000000     P
    P   1.0     0.997890     0.374468     0.235199  Biso 1.000000     P
    P   1.0     0.365735     0.116846     0.392478  Biso 1.000000     P
    P   1.0     0.865639     0.117376     0.392876  Biso 1.000000     P
    P   1.0     0.371084     0.909347     0.611499  Biso 1.000000     P
    P   1.0     0.871182     0.909122     0.611376  Biso 1.000000     P
    P   1.0     0.010861     0.235605     0.600597  Biso 1.000000     P
    P   1.0     0.510822     0.235699     0.600659  Biso 1.000000     P
    P   1.0     0.254152     0.125563     0.735327  Biso 1.000000     P
    P   1.0     0.753490     0.124807     0.735033  Biso 1.000000     P
