#======================================================================

# CRYSTAL DATA

#----------------------------------------------------------------------

data_VESTA_phase_1


_pd_phase_name                         MOF
_cell_length_a                         18.08700
_cell_length_b                         18.08700
_cell_length_c                         17.82500
_cell_angle_alpha                      90.00000
_cell_angle_beta                       89.99900
_cell_angle_gamma                      119.98100
_symmetry_space_group_name_H-M         "P 1"
_symmetry_Int_Tables_number            1

loop_
_symmetry_equiv_pos_as_xyz
   "x, y, z"

loop_
   _atom_site_label
   _atom_site_occupancy
   _atom_site_fract_x
   _atom_site_fract_y
   _atom_site_fract_z
   _atom_site_adp_type
   _atom_site_B_iso_or_equiv
   _atom_site_type_symbol
    H   1.0     0.202551     0.211744     0.092039  Biso 1.000000     H
    H   1.0     0.202569     0.711758     0.092031  Biso 1.000000     H
    H   1.0     0.702577     0.211750     0.092031  Biso 1.000000     H
    H   1.0     0.702608     0.711765     0.092019  Biso 1.000000     H
    H   1.0     0.260702     0.177712     0.034503  Biso 1.000000     H
    H   1.0     0.260703     0.677708     0.034492  Biso 1.000000     H
    H   1.0     0.760711     0.177700     0.034491  Biso 1.000000     H
    H   1.0     0.760709     0.677683     0.034471  Biso 1.000000     H
    H   1.0     0.508915     0.297124     0.091975  Biso 1.000000     H
    H   1.0     0.508917     0.797132     0.091977  Biso 1.000000     H
    H   1.0     0.000000     0.297127     0.091977  Biso 1.000000     H
    H   1.0     0.000000     0.797138     0.091980  Biso 1.000000     H
    H   1.0     0.416779     0.239270     0.034357  Biso 1.000000     H
    H   1.0     0.416781     0.739277     0.034360  Biso 1.000000     H
    H   1.0     0.916789     0.239270     0.034360  Biso 1.000000     H
    H   1.0     0.916793     0.739274     0.034365  Biso 1.000000     H
    H   1.0     0.288166    -0.009204     0.091992  Biso 1.000000     H
    H   1.0     0.288161     0.490807     0.091990  Biso 1.000000     H
    H   1.0     0.788172    -0.009197     0.091990  Biso 1.000000     H
    H   1.0     0.788174     0.490800     0.091994  Biso 1.000000     H
    H   1.0     0.322206     0.082971     0.034474  Biso 1.000000     H
    H   1.0     0.322208     0.582983     0.034470  Biso 1.000000     H
    H   1.0     0.822221     0.082977     0.034469  Biso 1.000000     H
    H   1.0     0.822212     0.582976     0.034477  Biso 1.000000     H
    H   1.0     0.202573     0.211742     0.407959  Biso 1.000000     H
    H   1.0     0.202569     0.711748     0.407958  Biso 1.000000     H
    H   1.0     0.702581     0.211744     0.407959  Biso 1.000000     H
    H   1.0     0.702589     0.711751     0.407962  Biso 1.000000     H
    H   1.0     0.260698     0.177685     0.465501  Biso 1.000000     H
    H   1.0     0.260697     0.677694     0.465499  Biso 1.000000     H
    H   1.0     0.760707     0.177689     0.465500  Biso 1.000000     H
    H   1.0     0.760704     0.677686     0.465506  Biso 1.000000     H
    H   1.0     0.508904     0.297109     0.408018  Biso 1.000000     H
    H   1.0     0.508910     0.797124     0.408014  Biso 1.000000     H
    H   1.0     0.000000     0.297111     0.408017  Biso 1.000000     H
    H   1.0     0.000000     0.797127     0.408013  Biso 1.000000     H
    H   1.0     0.416767     0.239262     0.465639  Biso 1.000000     H
    H   1.0     0.416773     0.739271     0.465634  Biso 1.000000     H
    H   1.0     0.916776     0.239261     0.465636  Biso 1.000000     H
    H   1.0     0.916784     0.739268     0.465632  Biso 1.000000     H
    H   1.0     0.288164    -0.009210     0.408002  Biso 1.000000     H
    H   1.0     0.288159     0.490807     0.408006  Biso 1.000000     H
    H   1.0     0.788169    -0.009208     0.408003  Biso 1.000000     H
    H   1.0     0.788169     0.490799     0.408002  Biso 1.000000     H
    H   1.0     0.322202     0.082966     0.465519  Biso 1.000000     H
    H   1.0     0.322209     0.582982     0.465527  Biso 1.000000     H
    H   1.0     0.822211     0.082968     0.465521  Biso 1.000000     H
    H   1.0     0.822211     0.582974     0.465520  Biso 1.000000     H
    H   1.0    -0.009217     0.288175     0.907984  Biso 1.000000     H
    H   1.0    -0.009210     0.788177     0.907988  Biso 1.000000     H
    H   1.0     0.490791     0.288177     0.907984  Biso 1.000000     H
    H   1.0     0.490793     0.788181     0.907986  Biso 1.000000     H
    H   1.0     0.082953     0.322182     0.965501  Biso 1.000000     H
    H   1.0     0.082961     0.822193     0.965507  Biso 1.000000     H
    H   1.0     0.582961     0.322184     0.965501  Biso 1.000000     H
    H   1.0     0.582963     0.822190     0.965503  Biso 1.000000     H
    H   1.0     0.211732     0.202580     0.907957  Biso 1.000000     H
    H   1.0     0.211729     0.702568     0.907948  Biso 1.000000     H
    H   1.0     0.711736     0.202564     0.907948  Biso 1.000000     H
    H   1.0     0.711728     0.702539     0.907937  Biso 1.000000     H
    H   1.0     0.177674     0.260700     0.965507  Biso 1.000000     H
    H   1.0     0.177692     0.760709     0.965492  Biso 1.000000     H
    H   1.0     0.677697     0.260702     0.965494  Biso 1.000000     H
    H   1.0     0.677719     0.760709     0.965474  Biso 1.000000     H
    H   1.0     0.297134     0.508913     0.908000  Biso 1.000000     H
    H   1.0     0.297131     0.000000     0.908002  Biso 1.000000     H
    H   1.0     0.797136     0.508909     0.908004  Biso 1.000000     H
    H   1.0     0.797144     0.000000     0.908001  Biso 1.000000     H
    H   1.0     0.239248     0.416780     0.965617  Biso 1.000000     H
    H   1.0     0.239250     0.916784     0.965621  Biso 1.000000     H
    H   1.0     0.739258     0.416776     0.965623  Biso 1.000000     H
    H   1.0     0.739257     0.916788     0.965619  Biso 1.000000     H
    H   1.0    -0.009224     0.288172     0.591990  Biso 1.000000     H
    H   1.0    -0.009213     0.788179     0.591986  Biso 1.000000     H
    H   1.0     0.490783     0.288175     0.591991  Biso 1.000000     H
    H   1.0     0.490790     0.788182     0.591987  Biso 1.000000     H
    H   1.0     0.082948     0.322173     0.534474  Biso 1.000000     H
    H   1.0     0.082959     0.822190     0.534467  Biso 1.000000     H
    H   1.0     0.582955     0.322174     0.534475  Biso 1.000000     H
    H   1.0     0.582962     0.822187     0.534470  Biso 1.000000     H
    H   1.0     0.211731     0.202558     0.592024  Biso 1.000000     H
    H   1.0     0.211731     0.702566     0.592024  Biso 1.000000     H
    H   1.0     0.711741     0.202562     0.592024  Biso 1.000000     H
    H   1.0     0.711735     0.702556     0.592027  Biso 1.000000     H
    H   1.0     0.177696     0.260702     0.534482  Biso 1.000000     H
    H   1.0     0.177695     0.760709     0.534481  Biso 1.000000     H
    H   1.0     0.677705     0.260705     0.534481  Biso 1.000000     H
    H   1.0     0.677711     0.760710     0.534487  Biso 1.000000     H
    H   1.0     0.297138     0.508914     0.591977  Biso 1.000000     H
    H   1.0     0.297132     0.000000     0.591974  Biso 1.000000     H
    H   1.0     0.797140     0.508909     0.591974  Biso 1.000000     H
    H   1.0     0.797141     0.000000     0.591974  Biso 1.000000     H
    H   1.0     0.239253     0.416783     0.534359  Biso 1.000000     H
    H   1.0     0.239257     0.916785     0.534353  Biso 1.000000     H
    H   1.0     0.739261     0.416778     0.534355  Biso 1.000000     H
    H   1.0     0.739262     0.916786     0.534354  Biso 1.000000     H
    C   1.0     0.169313     0.079780     0.107721  Biso 1.000000     C
    C   1.0     0.169315     0.579790     0.107720  Biso 1.000000     C
    C   1.0     0.669323     0.079782     0.107719  Biso 1.000000     C
    C   1.0     0.669324     0.579788     0.107717  Biso 1.000000     C
    C   1.0     0.197243     0.158213     0.058304  Biso 1.000000     C
    C   1.0     0.197249     0.658221     0.058298  Biso 1.000000     C
    C   1.0     0.697257     0.158213     0.058298  Biso 1.000000     C
    C   1.0     0.697264     0.658215     0.058289  Biso 1.000000     C
    C   1.0     0.410416     0.330700     0.107694  Biso 1.000000     C
    C   1.0     0.410418     0.830709     0.107695  Biso 1.000000     C
    C   1.0     0.910425     0.330701     0.107694  Biso 1.000000     C
    C   1.0     0.910426     0.830706     0.107695  Biso 1.000000     C
    C   1.0     0.460811     0.302649     0.058244  Biso 1.000000     C
    C   1.0     0.460812     0.802656     0.058245  Biso 1.000000     C
    C   1.0     0.960820     0.302650     0.058245  Biso 1.000000     C
    C   1.0     0.960823     0.802655     0.058247  Biso 1.000000     C
    C   1.0     0.420115     0.089472     0.107725  Biso 1.000000     C
    C   1.0     0.420112     0.589479     0.107725  Biso 1.000000     C
    C   1.0     0.920124     0.089472     0.107724  Biso 1.000000     C
    C   1.0     0.920123     0.589478     0.107726  Biso 1.000000     C
    C   1.0     0.341710     0.039005     0.058276  Biso 1.000000     C
    C   1.0     0.341708     0.539014     0.058274  Biso 1.000000     C
    C   1.0     0.841719     0.039008     0.058274  Biso 1.000000     C
    C   1.0     0.841718     0.539011     0.058278  Biso 1.000000     C
    C   1.0     0.169312     0.079771     0.392271  Biso 1.000000     C
    C   1.0     0.169311     0.579779     0.392271  Biso 1.000000     C
    C   1.0     0.669320     0.079774     0.392271  Biso 1.000000     C
    C   1.0     0.669319     0.579779     0.392272  Biso 1.000000     C
    C   1.0     0.197246     0.158202     0.441693  Biso 1.000000     C
    C   1.0     0.197245     0.658209     0.441692  Biso 1.000000     C
    C   1.0     0.697255     0.158205     0.441692  Biso 1.000000     C
    C   1.0     0.697255     0.658208     0.441695  Biso 1.000000     C
    C   1.0     0.410412     0.330694     0.392299  Biso 1.000000     C
    C   1.0     0.410414     0.830704     0.392298  Biso 1.000000     C
    C   1.0     0.910420     0.330694     0.392298  Biso 1.000000     C
    C   1.0     0.910421     0.830701     0.392298  Biso 1.000000     C
    C   1.0     0.460802     0.302639     0.441749  Biso 1.000000     C
    C   1.0     0.460806     0.802650     0.441746  Biso 1.000000     C
    C   1.0     0.960810     0.302639     0.441748  Biso 1.000000     C
    C   1.0     0.960815     0.802649     0.441746  Biso 1.000000     C
    C   1.0     0.420113     0.089469     0.392266  Biso 1.000000     C
    C   1.0     0.420111     0.589476     0.392267  Biso 1.000000     C
    C   1.0     0.920119     0.089467     0.392265  Biso 1.000000     C
    C   1.0     0.920119     0.589474     0.392266  Biso 1.000000     C
    C   1.0     0.341707     0.039001     0.441717  Biso 1.000000     C
    C   1.0     0.341706     0.539012     0.441720  Biso 1.000000     C
    C   1.0     0.841714     0.039001     0.441717  Biso 1.000000     C
    C   1.0     0.841713     0.539007     0.441717  Biso 1.000000     C
    C   1.0     0.089471     0.420113     0.892259  Biso 1.000000     C
    C   1.0     0.089472     0.920118     0.892260  Biso 1.000000     C
    C   1.0     0.589479     0.420116     0.892260  Biso 1.000000     C
    C   1.0     0.589479     0.920120     0.892260  Biso 1.000000     C
    C   1.0     0.039001     0.341706     0.941707  Biso 1.000000     C
    C   1.0     0.039005     0.841711     0.941710  Biso 1.000000     C
    C   1.0     0.539008     0.341708     0.941708  Biso 1.000000     C
    C   1.0     0.539009     0.841713     0.941709  Biso 1.000000     C
    C   1.0     0.079765     0.169310     0.892269  Biso 1.000000     C
    C   1.0     0.079767     0.669318     0.892266  Biso 1.000000     C
    C   1.0     0.579773     0.169312     0.892267  Biso 1.000000     C
    C   1.0     0.579773     0.669316     0.892265  Biso 1.000000     C
    C   1.0     0.158192     0.197251     0.941695  Biso 1.000000     C
    C   1.0     0.158197     0.697254     0.941688  Biso 1.000000     C
    C   1.0     0.658203     0.197248     0.941689  Biso 1.000000     C
    C   1.0     0.658207     0.697246     0.941680  Biso 1.000000     C
    C   1.0     0.330687     0.410403     0.892293  Biso 1.000000     C
    C   1.0     0.330689     0.910410     0.892293  Biso 1.000000     C
    C   1.0     0.830695     0.410403     0.892293  Biso 1.000000     C
    C   1.0     0.830695     0.910409     0.892293  Biso 1.000000     C
    C   1.0     0.302635     0.460799     0.941739  Biso 1.000000     C
    C   1.0     0.302636     0.960805     0.941741  Biso 1.000000     C
    C   1.0     0.802643     0.460797     0.941742  Biso 1.000000     C
    C   1.0     0.802644     0.960806     0.941740  Biso 1.000000     C
    C   1.0     0.089469     0.420108     0.607714  Biso 1.000000     C
    C   1.0     0.089472     0.920117     0.607712  Biso 1.000000     C
    C   1.0     0.589476     0.420110     0.607714  Biso 1.000000     C
    C   1.0     0.589479     0.920118     0.607713  Biso 1.000000     C
    C   1.0     0.038998     0.341701     0.558267  Biso 1.000000     C
    C   1.0     0.039005     0.841712     0.558263  Biso 1.000000     C
    C   1.0     0.539005     0.341703     0.558267  Biso 1.000000     C
    C   1.0     0.539010     0.841713     0.558264  Biso 1.000000     C
    C   1.0     0.079769     0.169309     0.607708  Biso 1.000000     C
    C   1.0     0.079768     0.669317     0.607708  Biso 1.000000     C
    C   1.0     0.579778     0.169312     0.607708  Biso 1.000000     C
    C   1.0     0.579776     0.669317     0.607708  Biso 1.000000     C
    C   1.0     0.158200     0.197246     0.558285  Biso 1.000000     C
    C   1.0     0.158200     0.697253     0.558285  Biso 1.000000     C
    C   1.0     0.658209     0.197249     0.558285  Biso 1.000000     C
    C   1.0     0.658208     0.697251     0.558287  Biso 1.000000     C
    C   1.0     0.330690     0.410403     0.607681  Biso 1.000000     C
    C   1.0     0.330692     0.910410     0.607680  Biso 1.000000     C
    C   1.0     0.830697     0.410402     0.607681  Biso 1.000000     C
    C   1.0     0.830698     0.910409     0.607680  Biso 1.000000     C
    C   1.0     0.302640     0.460801     0.558236  Biso 1.000000     C
    C   1.0     0.302641     0.960806     0.558234  Biso 1.000000     C
    C   1.0     0.802646     0.460798     0.558234  Biso 1.000000     C
    C   1.0     0.802647     0.960805     0.558234  Biso 1.000000     C
    O   1.0     0.102183     0.011987     0.090360  Biso 1.000000     O
    O   1.0     0.102183     0.511998     0.090361  Biso 1.000000     O
    O   1.0     0.602190     0.011991     0.090361  Biso 1.000000     O
    O   1.0     0.602188     0.511998     0.090361  Biso 1.000000     O
    O   1.0     0.218179     0.088399     0.162430  Biso 1.000000     O
    O   1.0     0.218180     0.588409     0.162429  Biso 1.000000     O
    O   1.0     0.718189     0.088401     0.162428  Biso 1.000000     O
    O   1.0     0.718190     0.588408     0.162426  Biso 1.000000     O
    O   1.0     0.409917     0.397951     0.090408  Biso 1.000000     O
    O   1.0     0.409920     0.897959     0.090407  Biso 1.000000     O
    O   1.0     0.909926     0.397952     0.090407  Biso 1.000000     O
    O   1.0     0.909927     0.897956     0.090407  Biso 1.000000     O
    O   1.0     0.370098     0.281815     0.162370  Biso 1.000000     O
    O   1.0     0.370100     0.781824     0.162371  Biso 1.000000     O
    O   1.0     0.870107     0.281816     0.162371  Biso 1.000000     O
    O   1.0     0.870108     0.781821     0.162371  Biso 1.000000     O
    O   1.0     0.487934     0.090138     0.090382  Biso 1.000000     O
    O   1.0     0.487931     0.590144     0.090383  Biso 1.000000     O
    O   1.0     0.987943     0.090136     0.090382  Biso 1.000000     O
    O   1.0     0.987942     0.590145     0.090383  Biso 1.000000     O
    O   1.0     0.411457     0.129711     0.162426  Biso 1.000000     O
    O   1.0     0.411453     0.629717     0.162426  Biso 1.000000     O
    O   1.0     0.911467     0.129712     0.162425  Biso 1.000000     O
    O   1.0     0.911465     0.629717     0.162428  Biso 1.000000     O
    O   1.0     0.102177     0.011981     0.409630  Biso 1.000000     O
    O   1.0     0.102176     0.511988     0.409630  Biso 1.000000     O
    O   1.0     0.602186     0.011984     0.409630  Biso 1.000000     O
    O   1.0     0.602183     0.511989     0.409630  Biso 1.000000     O
    O   1.0     0.218179     0.088389     0.337563  Biso 1.000000     O
    O   1.0     0.218178     0.588397     0.337563  Biso 1.000000     O
    O   1.0     0.718188     0.088392     0.337562  Biso 1.000000     O
    O   1.0     0.718186     0.588396     0.337563  Biso 1.000000     O
    O   1.0     0.409916     0.397946     0.409584  Biso 1.000000     O
    O   1.0     0.409918     0.897956     0.409585  Biso 1.000000     O
    O   1.0     0.909923     0.397945     0.409584  Biso 1.000000     O
    O   1.0     0.909923     0.897952     0.409585  Biso 1.000000     O
    O   1.0     0.370094     0.281809     0.337623  Biso 1.000000     O
    O   1.0     0.370094     0.781819     0.337624  Biso 1.000000     O
    O   1.0     0.870103     0.281810     0.337622  Biso 1.000000     O
    O   1.0     0.870103     0.781816     0.337623  Biso 1.000000     O
    O   1.0     0.487933     0.090136     0.409609  Biso 1.000000     O
    O   1.0     0.487930     0.590141     0.409608  Biso 1.000000     O
    O   1.0     0.987939     0.090134     0.409608  Biso 1.000000     O
    O   1.0     0.987939     0.590141     0.409609  Biso 1.000000     O
    O   1.0     0.411455     0.129707     0.337565  Biso 1.000000     O
    O   1.0     0.411453     0.629715     0.337566  Biso 1.000000     O
    O   1.0     0.911462     0.129706     0.337565  Biso 1.000000     O
    O   1.0     0.911462     0.629713     0.337565  Biso 1.000000     O
    O   1.0     0.090120     0.487927     0.909591  Biso 1.000000     O
    O   1.0     0.090119     0.987930     0.909591  Biso 1.000000     O
    O   1.0     0.590127     0.487929     0.909592  Biso 1.000000     O
    O   1.0     0.590128     0.987933     0.909591  Biso 1.000000     O
    O   1.0     0.129693     0.411449     0.837548  Biso 1.000000     O
    O   1.0     0.129694     0.911454     0.837548  Biso 1.000000     O
    O   1.0     0.629702     0.411453     0.837549  Biso 1.000000     O
    O   1.0     0.629701     0.911455     0.837548  Biso 1.000000     O
    O   1.0     0.011980     0.102163     0.909615  Biso 1.000000     O
    O   1.0     0.011982     0.602174     0.909615  Biso 1.000000     O
    O   1.0     0.511988     0.102166     0.909615  Biso 1.000000     O
    O   1.0     0.511986     0.602174     0.909616  Biso 1.000000     O
    O   1.0     0.088390     0.218168     0.837551  Biso 1.000000     O
    O   1.0     0.088393     0.718175     0.837548  Biso 1.000000     O
    O   1.0     0.588398     0.218170     0.837550  Biso 1.000000     O
    O   1.0     0.588398     0.718174     0.837547  Biso 1.000000     O
    O   1.0     0.397948     0.409920     0.909569  Biso 1.000000     O
    O   1.0     0.397949     0.909927     0.909568  Biso 1.000000     O
    O   1.0     0.897956     0.409920     0.909568  Biso 1.000000     O
    O   1.0     0.897955     0.909925     0.909568  Biso 1.000000     O
    O   1.0     0.281813     0.370101     0.837608  Biso 1.000000     O
    O   1.0     0.281815     0.870110     0.837607  Biso 1.000000     O
    O   1.0     0.781820     0.370103     0.837608  Biso 1.000000     O
    O   1.0     0.781820     0.870110     0.837607  Biso 1.000000     O
    O   1.0     0.090121     0.487923     0.590382  Biso 1.000000     O
    O   1.0     0.090123     0.987932     0.590382  Biso 1.000000     O
    O   1.0     0.590129     0.487925     0.590382  Biso 1.000000     O
    O   1.0     0.590131     0.987933     0.590382  Biso 1.000000     O
    O   1.0     0.129689     0.411441     0.662425  Biso 1.000000     O
    O   1.0     0.129693     0.911451     0.662423  Biso 1.000000     O
    O   1.0     0.629697     0.411444     0.662425  Biso 1.000000     O
    O   1.0     0.629699     0.911451     0.662424  Biso 1.000000     O
    O   1.0     0.011982     0.102167     0.590359  Biso 1.000000     O
    O   1.0     0.011982     0.602174     0.590359  Biso 1.000000     O
    O   1.0     0.511992     0.102169     0.590359  Biso 1.000000     O
    O   1.0     0.511989     0.602175     0.590358  Biso 1.000000     O
    O   1.0     0.088393     0.218165     0.662427  Biso 1.000000     O
    O   1.0     0.088393     0.718173     0.662426  Biso 1.000000     O
    O   1.0     0.588403     0.218168     0.662427  Biso 1.000000     O
    O   1.0     0.588401     0.718173     0.662427  Biso 1.000000     O
    O   1.0     0.397952     0.409921     0.590405  Biso 1.000000     O
    O   1.0     0.397955     0.909930     0.590405  Biso 1.000000     O
    O   1.0     0.897959     0.409921     0.590406  Biso 1.000000     O
    O   1.0     0.897961     0.909929     0.590405  Biso 1.000000     O
    O   1.0     0.281814     0.370099     0.662367  Biso 1.000000     O
    O   1.0     0.281816     0.870106     0.662365  Biso 1.000000     O
    O   1.0     0.781821     0.370100     0.662367  Biso 1.000000     O
    O   1.0     0.781822     0.870106     0.662366  Biso 1.000000     O
    O   1.0     0.135913     0.135916     0.000002  Biso 1.000000     O
    O   1.0     0.135903     0.635917     0.999985  Biso 1.000000     O
    O   1.0     0.635920     0.135919     0.000002  Biso 1.000000     O
    O   1.0     0.635907     0.635919     0.999986  Biso 1.000000     O
    O   1.0    -0.000010     0.364049     0.000022  Biso 1.000000     O
    O   1.0    -0.000011     0.864053     0.000022  Biso 1.000000     O
    O   1.0     0.499997     0.364050     0.000023  Biso 1.000000     O
    O   1.0     0.499987     0.864047     0.000000  Biso 1.000000     O
    O   1.0     0.364040    -0.000026    -0.000015  Biso 1.000000     O
    O   1.0     0.364027     0.499971     0.999968  Biso 1.000000     O
    O   1.0     0.864047    -0.000029    -0.000014  Biso 1.000000     O
    O   1.0     0.864048     0.499982    -0.000015  Biso 1.000000     O
    O   1.0     0.135906     0.135911     0.499987  Biso 1.000000     O
    O   1.0     0.135906     0.635917     0.499988  Biso 1.000000     O
    O   1.0     0.635916     0.135913     0.499988  Biso 1.000000     O
    O   1.0     0.635913     0.635919     0.499987  Biso 1.000000     O
    O   1.0    -0.000018     0.364039     0.499969  Biso 1.000000     O
    O   1.0    -0.000017     0.864047     0.499968  Biso 1.000000     O
    O   1.0     0.499990     0.364041     0.499968  Biso 1.000000     O
    O   1.0     0.499992     0.864050     0.499967  Biso 1.000000     O
    O   1.0     0.364037    -0.000030     0.500008  Biso 1.000000     O
    O   1.0     0.364033     0.499974     0.500007  Biso 1.000000     O
    O   1.0     0.864042    -0.000033     0.500007  Biso 1.000000     O
    O   1.0     0.864042     0.499974     0.500007  Biso 1.000000     O
    Y   1.0     0.000025     0.000023    -0.000001  Biso 1.000000     Y
    Y   1.0     0.000015     0.500024     0.999982  Biso 1.000000     Y
    Y   1.0     0.500033     0.000025    -0.000001  Biso 1.000000     Y
    Y   1.0     0.500021     0.500024     0.999983  Biso 1.000000     Y
    Y   1.0     0.000020     0.000019     0.499991  Biso 1.000000     Y
    Y   1.0     0.000020     0.500026     0.499992  Biso 1.000000     Y
    Y   1.0     0.500029     0.000021     0.499991  Biso 1.000000     Y
    Y   1.0     0.500026     0.500027     0.499991  Biso 1.000000     Y
   La   1.0     0.333301     0.166720     0.249996  Biso 1.000000    La
   La   1.0     0.333301     0.666729     0.249997  Biso 1.000000    La
   La   1.0     0.833310     0.166720     0.249995  Biso 1.000000    La
   La   1.0     0.833308     0.666726     0.249996  Biso 1.000000    La
   La   1.0     0.166714     0.333294     0.749987  Biso 1.000000    La
   La   1.0     0.166717     0.833302     0.749986  Biso 1.000000    La
   La   1.0     0.666722     0.333297     0.749988  Biso 1.000000    La
   La   1.0     0.666723     0.833303     0.749986  Biso 1.000000    La
