#======================================================================

# CRYSTAL DATA

#----------------------------------------------------------------------

data_VESTA_phase_1


_pd_phase_name                         MOF
_cell_length_a                         15.50300
_cell_length_b                         15.66600
_cell_length_c                         18.55900
_cell_angle_alpha                      90.00800
_cell_angle_beta                       90.00000
_cell_angle_gamma                      89.96200
_symmetry_space_group_name_H-M         "P 1"
_symmetry_Int_Tables_number            1

loop_
_symmetry_equiv_pos_as_xyz
   "x, y, z"

loop_
   _atom_site_label
   _atom_site_occupancy
   _atom_site_fract_x
   _atom_site_fract_y
   _atom_site_fract_z
   _atom_site_adp_type
   _atom_site_B_iso_or_equiv
   _atom_site_type_symbol
    H   1.0     0.684382     0.714766     0.661549  Biso 1.000000     H
    H   1.0     0.602212     0.949914     0.574896  Biso 1.000000     H
    H   1.0     0.459383     0.857464     0.619249  Biso 1.000000     H
    H   1.0     0.950067     0.818077     0.485236  Biso 1.000000     H
    H   1.0     0.709428     0.934561     0.445753  Biso 1.000000     H
    H   1.0     0.799327     0.919820     0.316874  Biso 1.000000     H
    H   1.0     0.937367     0.015136     0.584469  Biso 1.000000     H
    H   1.0     0.763975     0.948605     0.750009  Biso 1.000000     H
    H   1.0     0.871317     0.079091     0.798010  Biso 1.000000     H
    H   1.0     0.925220     0.823723     0.722928  Biso 1.000000     H
    H   1.0     0.909057     0.561292     0.674209  Biso 1.000000     H
    H   1.0     0.819690     0.653721     0.570672  Biso 1.000000     H
    H   1.0     0.815654     0.285269     0.161486  Biso 1.000000     H
    H   1.0     0.897769     0.050033     0.074919  Biso 1.000000     H
    H   1.0     0.040623     0.142488     0.119237  Biso 1.000000     H
    H   1.0     0.549880     0.181785     0.985228  Biso 1.000000     H
    H   1.0     0.790627     0.065536     0.945700  Biso 1.000000     H
    H   1.0     0.700739     0.080287     0.816820  Biso 1.000000     H
    H   1.0     0.562673     0.984842     0.084478  Biso 1.000000     H
    H   1.0     0.735970     0.051507     0.250070  Biso 1.000000     H
    H   1.0     0.628642     0.921020     0.298054  Biso 1.000000     H
    H   1.0     0.574716     0.176308     0.222866  Biso 1.000000     H
    H   1.0     0.590924     0.438735     0.174191  Biso 1.000000     H
    H   1.0     0.680318     0.346286     0.070662  Biso 1.000000     H
    H   1.0     0.315734     0.214546     0.838596  Biso 1.000000     H
    H   1.0     0.397516     0.449869     0.925002  Biso 1.000000     H
    H   1.0     0.540500     0.357383     0.880715  Biso 1.000000     H
    H   1.0     0.049860     0.317808     0.014729  Biso 1.000000     H
    H   1.0     0.290202     0.434609     0.054167  Biso 1.000000     H
    H   1.0     0.200348     0.419851     0.183057  Biso 1.000000     H
    H   1.0     0.062453     0.515083     0.915290  Biso 1.000000     H
    H   1.0     0.236285     0.448537     0.749996  Biso 1.000000     H
    H   1.0     0.129130     0.579310     0.701983  Biso 1.000000     H
    H   1.0     0.074675     0.323596     0.777026  Biso 1.000000     H
    H   1.0     0.091185     0.061170     0.825712  Biso 1.000000     H
    H   1.0     0.180511     0.153591     0.929214  Biso 1.000000     H
    H   1.0     0.184302     0.785539     0.338600  Biso 1.000000     H
    H   1.0     0.102611     0.550211     0.424993  Biso 1.000000     H
    H   1.0     0.959587     0.642616     0.380680  Biso 1.000000     H
    H   1.0     0.450257     0.682089     0.514723  Biso 1.000000     H
    H   1.0     0.209755     0.565627     0.554153  Biso 1.000000     H
    H   1.0     0.299595     0.580378     0.683058  Biso 1.000000     H
    H   1.0     0.437534     0.484958     0.415266  Biso 1.000000     H
    H   1.0     0.263829     0.551627     0.249924  Biso 1.000000     H
    H   1.0     0.370930     0.420794     0.201912  Biso 1.000000     H
    H   1.0     0.425487     0.676471     0.277110  Biso 1.000000     H
    H   1.0     0.408782     0.938911     0.325758  Biso 1.000000     H
    H   1.0     0.319561     0.846475     0.429290  Biso 1.000000     H
    H   1.0     0.315610     0.285256     0.338425  Biso 1.000000     H
    H   1.0     0.397780     0.050108     0.425075  Biso 1.000000     H
    H   1.0     0.540609     0.142557     0.380721  Biso 1.000000     H
    H   1.0     0.049924     0.181944     0.514737  Biso 1.000000     H
    H   1.0     0.290565     0.065463     0.554220  Biso 1.000000     H
    H   1.0     0.200666     0.080204     0.683100  Biso 1.000000     H
    H   1.0     0.062626     0.984885     0.415504  Biso 1.000000     H
    H   1.0     0.236016     0.051418     0.249963  Biso 1.000000     H
    H   1.0     0.128673     0.920932     0.201962  Biso 1.000000     H
    H   1.0     0.074773     0.176299     0.277044  Biso 1.000000     H
    H   1.0     0.090934     0.438730     0.325764  Biso 1.000000     H
    H   1.0     0.180301     0.346301     0.429300  Biso 1.000000     H
    H   1.0     0.184338     0.714753     0.838485  Biso 1.000000     H
    H   1.0     0.102222     0.949989     0.925054  Biso 1.000000     H
    H   1.0     0.959368     0.857533     0.880736  Biso 1.000000     H
    H   1.0     0.450111     0.818235     0.014745  Biso 1.000000     H
    H   1.0     0.209365     0.934489     0.054272  Biso 1.000000     H
    H   1.0     0.299254     0.919739     0.183152  Biso 1.000000     H
    H   1.0     0.437319     0.015180     0.915493  Biso 1.000000     H
    H   1.0     0.264022     0.948515     0.749903  Biso 1.000000     H
    H   1.0     0.371349     0.079002     0.701919  Biso 1.000000     H
    H   1.0     0.425276     0.823714     0.777108  Biso 1.000000     H
    H   1.0     0.409066     0.561287     0.825781  Biso 1.000000     H
    H   1.0     0.319672     0.653736     0.929309  Biso 1.000000     H
    H   1.0     0.684257     0.785476     0.161376  Biso 1.000000     H
    H   1.0     0.602476     0.550153     0.074970  Biso 1.000000     H
    H   1.0     0.459491     0.642639     0.119257  Biso 1.000000     H
    H   1.0     0.950135     0.682207     0.985245  Biso 1.000000     H
    H   1.0     0.709782     0.565429     0.945804  Biso 1.000000     H
    H   1.0     0.799637     0.580186     0.816913  Biso 1.000000     H
    H   1.0     0.937540     0.484939     0.084682  Biso 1.000000     H
    H   1.0     0.763705     0.551485     0.249975  Biso 1.000000     H
    H   1.0     0.870859     0.420711     0.297989  Biso 1.000000     H
    H   1.0     0.925317     0.676427     0.222947  Biso 1.000000     H
    H   1.0     0.908807     0.938852     0.174261  Biso 1.000000     H
    H   1.0     0.819480     0.846431     0.070759  Biso 1.000000     H
    H   1.0     0.815689     0.214483     0.661372  Biso 1.000000     H
    H   1.0     0.897380     0.449811     0.574980  Biso 1.000000     H
    H   1.0     0.040405     0.357406     0.619292  Biso 1.000000     H
    H   1.0     0.549739     0.317926     0.485248  Biso 1.000000     H
    H   1.0     0.790230     0.434410     0.445822  Biso 1.000000     H
    H   1.0     0.700391     0.419658     0.316918  Biso 1.000000     H
    H   1.0     0.562458     0.515065     0.584706  Biso 1.000000     H
    H   1.0     0.736162     0.448396     0.750050  Biso 1.000000     H
    H   1.0     0.629059     0.579227     0.798061  Biso 1.000000     H
    H   1.0     0.574505     0.323551     0.722863  Biso 1.000000     H
    H   1.0     0.591209     0.061111     0.674214  Biso 1.000000     H
    H   1.0     0.680429     0.153547     0.570682  Biso 1.000000     H
    C   1.0     0.642574     0.766343     0.644104  Biso 1.000000     C
    C   1.0     0.598393     0.887292     0.599601  Biso 1.000000     C
    C   1.0     0.527403     0.841439     0.621658  Biso 1.000000     C
    C   1.0     0.897280     0.849040     0.457043  Biso 1.000000     C
    C   1.0     0.773237     0.909127     0.435035  Biso 1.000000     C
    C   1.0     0.817766     0.902041     0.371189  Biso 1.000000     C
    C   1.0     0.904614     0.014853     0.636143  Biso 1.000000     C
    C   1.0     0.815942     0.981871     0.722766  Biso 1.000000     C
    C   1.0     0.869202     0.046254     0.746583  Biso 1.000000     C
    C   1.0     0.908843     0.764753     0.695489  Biso 1.000000     C
    C   1.0     0.899419     0.629597     0.668939  Biso 1.000000     C
    C   1.0     0.855087     0.675475     0.617627  Biso 1.000000     C
    C   1.0     0.857449     0.233668     0.144057  Biso 1.000000     C
    C   1.0     0.901601     0.112676     0.099600  Biso 1.000000     C
    C   1.0     0.972602     0.158531     0.121640  Biso 1.000000     C
    C   1.0     0.602700     0.150886     0.957020  Biso 1.000000     C
    C   1.0     0.726796     0.090920     0.934992  Biso 1.000000     C
    C   1.0     0.682273     0.098016     0.871145  Biso 1.000000     C
    C   1.0     0.595403     0.985158     0.136162  Biso 1.000000     C
    C   1.0     0.684026     0.018213     0.222812  Biso 1.000000     C
    C   1.0     0.630774     0.953827     0.246621  Biso 1.000000     C
    C   1.0     0.591114     0.235274     0.195444  Biso 1.000000     C
    C   1.0     0.600561     0.370429     0.168916  Biso 1.000000     C
    C   1.0     0.644904     0.324541     0.117607  Biso 1.000000     C
    C   1.0     0.357456     0.266169     0.855986  Biso 1.000000     C
    C   1.0     0.401445     0.387205     0.900363  Biso 1.000000     C
    C   1.0     0.472505     0.341340     0.878333  Biso 1.000000     C
    C   1.0     0.102569     0.348856     0.042909  Biso 1.000000     C
    C   1.0     0.226461     0.409107     0.064898  Biso 1.000000     C
    C   1.0     0.181956     0.402009     0.128748  Biso 1.000000     C
    C   1.0     0.095357     0.514838     0.863683  Biso 1.000000     C
    C   1.0     0.184254     0.481842     0.777189  Biso 1.000000     C
    C   1.0     0.131087     0.546378     0.753365  Biso 1.000000     C
    C   1.0     0.091140     0.264629     0.804454  Biso 1.000000     C
    C   1.0     0.100738     0.129475     0.830986  Biso 1.000000     C
    C   1.0     0.145055     0.175352     0.882281  Biso 1.000000     C
    C   1.0     0.142596     0.733905     0.355982  Biso 1.000000     C
    C   1.0     0.098652     0.612863     0.400351  Biso 1.000000     C
    C   1.0     0.027578     0.658692     0.378310  Biso 1.000000     C
    C   1.0     0.397500     0.651130     0.542905  Biso 1.000000     C
    C   1.0     0.273527     0.591055     0.564889  Biso 1.000000     C
    C   1.0     0.318022     0.598151     0.628745  Biso 1.000000     C
    C   1.0     0.404656     0.485225     0.363647  Biso 1.000000     C
    C   1.0     0.315821     0.518282     0.277127  Biso 1.000000     C
    C   1.0     0.368966     0.453721     0.253304  Biso 1.000000     C
    C   1.0     0.408976     0.735439     0.304528  Biso 1.000000     C
    C   1.0     0.399284     0.870601     0.331041  Biso 1.000000     C
    C   1.0     0.355014     0.824716     0.382349  Biso 1.000000     C
    C   1.0     0.357417     0.233678     0.355870  Biso 1.000000     C
    C   1.0     0.401598     0.112730     0.400371  Biso 1.000000     C
    C   1.0     0.472588     0.158582     0.378314  Biso 1.000000     C
    C   1.0     0.102710     0.150983     0.542932  Biso 1.000000     C
    C   1.0     0.226756     0.090896     0.564940  Biso 1.000000     C
    C   1.0     0.182226     0.097983     0.628785  Biso 1.000000     C
    C   1.0     0.095378     0.985169     0.363830  Biso 1.000000     C
    C   1.0     0.184049     0.018152     0.277207  Biso 1.000000     C
    C   1.0     0.130790     0.953768     0.253389  Biso 1.000000     C
    C   1.0     0.091151     0.235269     0.304483  Biso 1.000000     C
    C   1.0     0.100573     0.370425     0.331033  Biso 1.000000     C
    C   1.0     0.144905     0.324547     0.382345  Biso 1.000000     C
    C   1.0     0.142543     0.766354     0.855915  Biso 1.000000     C
    C   1.0     0.098391     0.887346     0.900373  Biso 1.000000     C
    C   1.0     0.027390     0.841491     0.878333  Biso 1.000000     C
    C   1.0     0.397293     0.849135     0.042953  Biso 1.000000     C
    C   1.0     0.273195     0.909104     0.064982  Biso 1.000000     C
    C   1.0     0.317719     0.902009     0.128828  Biso 1.000000     C
    C   1.0     0.404588     0.014863     0.863810  Biso 1.000000     C
    C   1.0     0.315965     0.981810     0.777162  Biso 1.000000     C
    C   1.0     0.369217     0.046195     0.753351  Biso 1.000000     C
    C   1.0     0.408877     0.764749     0.804530  Biso 1.000000     C
    C   1.0     0.399429     0.629593     0.831057  Biso 1.000000     C
    C   1.0     0.355086     0.675482     0.882366  Biso 1.000000     C
    C   1.0     0.642534     0.733854     0.143987  Biso 1.000000     C
    C   1.0     0.598545     0.612817     0.099610  Biso 1.000000     C
    C   1.0     0.527486     0.658683     0.121640  Biso 1.000000     C
    C   1.0     0.897421     0.651165     0.957065  Biso 1.000000     C
    C   1.0     0.773527     0.590926     0.935074  Biso 1.000000     C
    C   1.0     0.818030     0.598023     0.871224  Biso 1.000000     C
    C   1.0     0.904635     0.485185     0.136289  Biso 1.000000     C
    C   1.0     0.815736     0.518179     0.222783  Biso 1.000000     C
    C   1.0     0.868902     0.453643     0.246607  Biso 1.000000     C
    C   1.0     0.908853     0.735393     0.195519  Biso 1.000000     C
    C   1.0     0.899254     0.870547     0.168987  Biso 1.000000     C
    C   1.0     0.854936     0.824671     0.117692  Biso 1.000000     C
    C   1.0     0.857395     0.266117     0.643990  Biso 1.000000     C
    C   1.0     0.901339     0.387159     0.599622  Biso 1.000000     C
    C   1.0     0.972413     0.341330     0.621662  Biso 1.000000     C
    C   1.0     0.602494     0.348891     0.457068  Biso 1.000000     C
    C   1.0     0.726460     0.408977     0.435086  Biso 1.000000     C
    C   1.0     0.681966     0.401881     0.371230  Biso 1.000000     C
    C   1.0     0.595334     0.514798     0.636326  Biso 1.000000     C
    C   1.0     0.684170     0.481741     0.722847  Biso 1.000000     C
    C   1.0     0.631023     0.546302     0.746669  Biso 1.000000     C
    C   1.0     0.591015     0.264582     0.695444  Biso 1.000000     C
    C   1.0     0.600707     0.129421     0.668932  Biso 1.000000     C
    C   1.0     0.644976     0.175305     0.617623  Biso 1.000000     C
    N   1.0     0.555865     0.764578     0.649878  Biso 1.000000     N
    N   1.0     0.671496     0.839307     0.613960  Biso 1.000000     N
    N   1.0     0.896498     0.863908     0.385456  Biso 1.000000     N
    N   1.0     0.823959     0.875401     0.489494  Biso 1.000000     N
    N   1.0     0.925477     0.066959     0.691343  Biso 1.000000     N
    N   1.0     0.838637     0.962236     0.652491  Biso 1.000000     N
    N   1.0     0.933641     0.686714     0.718234  Biso 1.000000     N
    N   1.0     0.861221     0.761380     0.634744  Biso 1.000000     N
    N   1.0     0.944158     0.235422     0.149832  Biso 1.000000     N
    N   1.0     0.828506     0.160687     0.113939  Biso 1.000000     N
    N   1.0     0.603503     0.136073     0.885421  Biso 1.000000     N
    N   1.0     0.676034     0.124564     0.989469  Biso 1.000000     N
    N   1.0     0.574532     0.933077     0.191364  Biso 1.000000     N
    N   1.0     0.661359     0.037802     0.152524  Biso 1.000000     N
    N   1.0     0.566318     0.313319     0.218194  Biso 1.000000     N
    N   1.0     0.638754     0.238639     0.134709  Biso 1.000000     N
    N   1.0     0.444162     0.264426     0.850192  Biso 1.000000     N
    N   1.0     0.328424     0.339169     0.886070  Biso 1.000000     N
    N   1.0     0.103321     0.363774     0.114494  Biso 1.000000     N
    N   1.0     0.175821     0.375287     0.010451  Biso 1.000000     N
    N   1.0     0.074661     0.567076     0.808526  Biso 1.000000     N
    N   1.0     0.161355     0.462121     0.847391  Biso 1.000000     N
    N   1.0     0.066410     0.186590     0.781716  Biso 1.000000     N
    N   1.0     0.138810     0.261257     0.865174  Biso 1.000000     N
    N   1.0     0.055890     0.735610     0.350175  Biso 1.000000     N
    N   1.0     0.171651     0.660927     0.386069  Biso 1.000000     N
    N   1.0     0.396710     0.636274     0.614496  Biso 1.000000     N
    N   1.0     0.324225     0.624762     0.510439  Biso 1.000000     N
    N   1.0     0.425348     0.432983     0.308482  Biso 1.000000     N
    N   1.0     0.338694     0.537974     0.347345  Biso 1.000000     N
    N   1.0     0.433643     0.813484     0.281773  Biso 1.000000     N
    N   1.0     0.361312     0.738806     0.365254  Biso 1.000000     N
    N   1.0     0.444126     0.235444     0.350095  Biso 1.000000     N
    N   1.0     0.328494     0.160715     0.386014  Biso 1.000000     N
    N   1.0     0.103492     0.136114     0.614519  Biso 1.000000     N
    N   1.0     0.176031     0.124621     0.510482  Biso 1.000000     N
    N   1.0     0.074515     0.933063     0.308630  Biso 1.000000     N
    N   1.0     0.161355     0.037787     0.347483  Biso 1.000000     N
    N   1.0     0.066351     0.313308     0.281739  Biso 1.000000     N
    N   1.0     0.138770     0.238642     0.365229  Biso 1.000000     N
    N   1.0     0.055834     0.764600     0.850140  Biso 1.000000     N
    N   1.0     0.171486     0.839334     0.886034  Biso 1.000000     N
    N   1.0     0.396489     0.863951     0.114552  Biso 1.000000     N
    N   1.0     0.323959     0.875459     0.010506  Biso 1.000000     N
    N   1.0     0.425460     0.066945     0.808609  Biso 1.000000     N
    N   1.0     0.338633     0.962219     0.847449  Biso 1.000000     N
    N   1.0     0.433673     0.686705     0.781781  Biso 1.000000     N
    N   1.0     0.361236     0.761385     0.865265  Biso 1.000000     N
    N   1.0     0.555827     0.735598     0.149781  Biso 1.000000     N
    N   1.0     0.671565     0.660854     0.113904  Biso 1.000000     N
    N   1.0     0.896667     0.636251     0.885480  Biso 1.000000     N
    N   1.0     0.824168     0.624738     0.989524  Biso 1.000000     N
    N   1.0     0.925329     0.432947     0.191446  Biso 1.000000     N
    N   1.0     0.838636     0.537901     0.152581  Biso 1.000000     N
    N   1.0     0.933582     0.813433     0.218257  Biso 1.000000     N
    N   1.0     0.861181     0.738766     0.134799  Biso 1.000000     N
    N   1.0     0.944101     0.264412     0.649797  Biso 1.000000     N
    N   1.0     0.828339     0.339095     0.613904  Biso 1.000000     N
    N   1.0     0.603281     0.363750     0.385478  Biso 1.000000     N
    N   1.0     0.675766     0.375262     0.489536  Biso 1.000000     N
    N   1.0     0.574641     0.567041     0.691491  Biso 1.000000     N
    N   1.0     0.661297     0.462050     0.652629  Biso 1.000000     N
    N   1.0     0.566348     0.186537     0.718201  Biso 1.000000     N
    N   1.0     0.638678     0.261215     0.634718  Biso 1.000000     N
   Zn   1.0     0.796432     0.862568     0.594021  Biso 1.000000    Zn
   Zn   1.0     0.489225     0.663278     0.686900  Biso 1.000000    Zn
   Zn   1.0     0.703555     0.137436     0.094018  Biso 1.000000    Zn
   Zn   1.0     0.010785     0.336741     0.186871  Biso 1.000000    Zn
   Zn   1.0     0.203480     0.362467     0.905937  Biso 1.000000    Zn
   Zn   1.0     0.510844     0.163147     0.813103  Biso 1.000000    Zn
   Zn   1.0     0.296560     0.637595     0.405939  Biso 1.000000    Zn
   Zn   1.0     0.989144     0.836862     0.313125  Biso 1.000000    Zn
   Zn   1.0     0.203556     0.137456     0.405959  Biso 1.000000    Zn
   Zn   1.0     0.510763     0.336746     0.313077  Biso 1.000000    Zn
   Zn   1.0     0.296432     0.862589     0.905962  Biso 1.000000    Zn
   Zn   1.0     0.989203     0.663284     0.813106  Biso 1.000000    Zn
   Zn   1.0     0.796508     0.637557     0.094042  Biso 1.000000    Zn
   Zn   1.0     0.489145     0.836878     0.186873  Biso 1.000000    Zn
   Zn   1.0     0.703428     0.362429     0.594041  Biso 1.000000    Zn
   Zn   1.0     0.010844     0.163163     0.686851  Biso 1.000000    Zn
