#======================================================================

# CRYSTAL DATA

#----------------------------------------------------------------------

data_VESTA_phase_1


_pd_phase_name                         MOF
_cell_length_a                         13.07000
_cell_length_b                         24.20900
_cell_length_c                         15.04200
_cell_angle_alpha                      90.03300
_cell_angle_beta                       90.13600
_cell_angle_gamma                      90.33600
_symmetry_space_group_name_H-M         "P 1"
_symmetry_Int_Tables_number            1

loop_
_symmetry_equiv_pos_as_xyz
   "x, y, z"

loop_
   _atom_site_label
   _atom_site_occupancy
   _atom_site_fract_x
   _atom_site_fract_y
   _atom_site_fract_z
   _atom_site_adp_type
   _atom_site_B_iso_or_equiv
   _atom_site_type_symbol
    H   1.0     0.914074     0.172904     0.736352  Biso 1.000000     H
    H   1.0     0.986906     0.007241     0.820581  Biso 1.000000     H
    H   1.0     0.084354     0.152518     0.967282  Biso 1.000000     H
    H   1.0     0.086919     0.335167     0.976438  Biso 1.000000     H
    H   1.0    -0.003319     0.494598     0.871998  Biso 1.000000     H
    H   1.0     0.879991     0.340647     0.767049  Biso 1.000000     H
    H   1.0     0.083391     0.827573     0.236395  Biso 1.000000     H
    H   1.0     0.008588     0.993279     0.318847  Biso 1.000000     H
    H   1.0     0.911524     0.848240     0.465736  Biso 1.000000     H
    H   1.0     0.909885     0.666084     0.475251  Biso 1.000000     H
    H   1.0     0.998692     0.506132     0.371895  Biso 1.000000     H
    H   1.0     0.116918     0.659552     0.266962  Biso 1.000000     H
    H   1.0     0.585644     0.673683     0.741629  Biso 1.000000     H
    H   1.0     0.511317     0.507996     0.826403  Biso 1.000000     H
    H   1.0     0.413818     0.653231     0.971270  Biso 1.000000     H
    H   1.0     0.412156     0.836408     0.976803  Biso 1.000000     H
    H   1.0     0.501297    -0.004683     0.867708  Biso 1.000000     H
    H   1.0     0.618686     0.841069     0.767877  Biso 1.000000     H
    H   1.0     0.414618     0.327715     0.239401  Biso 1.000000     H
    H   1.0     0.482363     0.493546     0.328180  Biso 1.000000     H
    H   1.0     0.583614     0.348385     0.471304  Biso 1.000000     H
    H   1.0     0.588563     0.164690     0.475692  Biso 1.000000     H
    H   1.0     0.495768     0.000000     0.368099  Biso 1.000000     H
    H   1.0     0.382227     0.160343     0.265683  Biso 1.000000     H
    C   1.0     0.947412     0.143916     0.783187  Biso 1.000000     C
    C   1.0     0.942551     0.087066     0.769307  Biso 1.000000     C
    C   1.0     0.989452     0.051820     0.829669  Biso 1.000000     C
    C   1.0     0.044260     0.075265     0.900514  Biso 1.000000     C
    C   1.0     0.045173     0.132634     0.911852  Biso 1.000000     C
    C   1.0     0.894571     0.067498     0.685059  Biso 1.000000     C
    C   1.0     0.104060     0.038663     0.960980  Biso 1.000000     C
    C   1.0     0.043200     0.360906     0.931268  Biso 1.000000     C
    C   1.0     0.051362     0.418542     0.932494  Biso 1.000000     C
    C   1.0    -0.008210     0.449651     0.873894  Biso 1.000000     C
    C   1.0     0.928381     0.421436     0.813709  Biso 1.000000     C
    C   1.0     0.925446     0.363797     0.814927  Biso 1.000000     C
    C   1.0     0.134841     0.442014     0.989058  Biso 1.000000     C
    C   1.0     0.869109     0.451411     0.743206  Biso 1.000000     C
    C   1.0     0.049381     0.856601     0.282699  Biso 1.000000     C
    C   1.0     0.053904     0.913408     0.268521  Biso 1.000000     C
    C   1.0     0.006256     0.948727     0.328180  Biso 1.000000     C
    C   1.0     0.951281     0.925393     0.398782  Biso 1.000000     C
    C   1.0     0.950725     0.868057     0.410451  Biso 1.000000     C
    C   1.0     0.102870     0.932773     0.184855  Biso 1.000000     C
    C   1.0     0.891740     0.962233     0.458914  Biso 1.000000     C
    C   1.0     0.953465     0.640084     0.430509  Biso 1.000000     C
    C   1.0     0.944752     0.582481     0.432035  Biso 1.000000     C
    C   1.0     0.000000     0.551072     0.373754  Biso 1.000000     C
    C   1.0     0.067709     0.578979     0.313639  Biso 1.000000     C
    C   1.0     0.071248     0.636616     0.314717  Biso 1.000000     C
    C   1.0     0.860658     0.559725     0.488518  Biso 1.000000     C
    C   1.0     0.126455     0.548692     0.243120  Biso 1.000000     C
    C   1.0     0.551759     0.644718     0.788383  Biso 1.000000     C
    C   1.0     0.556411     0.587876     0.775028  Biso 1.000000     C
    C   1.0     0.508958     0.552581     0.835189  Biso 1.000000     C
    C   1.0     0.453925     0.575954     0.905413  Biso 1.000000     C
    C   1.0     0.453172     0.633357     0.916317  Biso 1.000000     C
    C   1.0     0.605015     0.568217     0.691592  Biso 1.000000     C
    C   1.0     0.393946     0.539049     0.965548  Biso 1.000000     C
    C   1.0     0.455730     0.861995     0.931076  Biso 1.000000     C
    C   1.0     0.447222     0.919570     0.930560  Biso 1.000000     C
    C   1.0     0.506514     0.950442     0.871106  Biso 1.000000     C
    C   1.0     0.570003     0.922017     0.811883  Biso 1.000000     C
    C   1.0     0.573270     0.864442     0.814941  Biso 1.000000     C
    C   1.0     0.363341     0.942796     0.986228  Biso 1.000000     C
    C   1.0     0.628419     0.951588     0.740100  Biso 1.000000     C
    C   1.0     0.446991     0.356735     0.287071  Biso 1.000000     C
    C   1.0     0.440548     0.413622     0.274687  Biso 1.000000     C
    C   1.0     0.486184     0.448940     0.336130  Biso 1.000000     C
    C   1.0     0.541435     0.425652     0.406506  Biso 1.000000     C
    C   1.0     0.544005     0.368213     0.416323  Biso 1.000000     C
    C   1.0     0.392282     0.433447     0.190949  Biso 1.000000     C
    C   1.0     0.600208     0.462731     0.467662  Biso 1.000000     C
    C   1.0     0.544579     0.139196     0.429894  Biso 1.000000     C
    C   1.0     0.551769     0.081562     0.430011  Biso 1.000000     C
    C   1.0     0.491738     0.050773     0.370687  Biso 1.000000     C
    C   1.0     0.429015     0.079280     0.310824  Biso 1.000000     C
    C   1.0     0.427122     0.136909     0.313195  Biso 1.000000     C
    C   1.0     0.634305     0.057705     0.486684  Biso 1.000000     C
    C   1.0     0.369319     0.049754     0.239523  Biso 1.000000     C
    N   1.0    -0.004347     0.166307     0.854246  Biso 1.000000     N
    N   1.0    -0.018298     0.334133     0.873503  Biso 1.000000     N
    N   1.0     0.000000     0.834325     0.353390  Biso 1.000000     N
    N   1.0     0.000000     0.666552     0.372949  Biso 1.000000     N
    N   1.0     0.503060     0.667081     0.858761  Biso 1.000000     N
    N   1.0     0.517264     0.835057     0.874297  Biso 1.000000     N
    N   1.0     0.495628     0.334381     0.357677  Biso 1.000000     N
    N   1.0     0.483594     0.166255     0.372560  Biso 1.000000     N
    O   1.0     0.906511     0.101373     0.619601  Biso 1.000000     O
    O   1.0     0.849427     0.021224     0.679855  Biso 1.000000     O
    O   1.0     0.092706     0.986419     0.945263  Biso 1.000000     O
    O   1.0     0.160688     0.059689     0.020190  Biso 1.000000     O
    O   1.0     0.207447     0.407178     0.003910  Biso 1.000000     O
    O   1.0     0.134252     0.491405     0.000000  Biso 1.000000     O
    O   1.0     0.875796     0.502741     0.734492  Biso 1.000000     O
    O   1.0     0.812871     0.420923     0.690970  Biso 1.000000     O
    O   1.0     0.093445     0.898403     0.119729  Biso 1.000000     O
    O   1.0     0.146633     0.979441     0.179806  Biso 1.000000     O
    O   1.0     0.902529     0.014377     0.441998  Biso 1.000000     O
    O   1.0     0.836213     0.941740     0.519126  Biso 1.000000     O
    O   1.0     0.787367     0.594675     0.499786  Biso 1.000000     O
    O   1.0     0.861598     0.511140     0.519237  Biso 1.000000     O
    O   1.0     0.119327     0.497482     0.234393  Biso 1.000000     O
    O   1.0     0.182549     0.579303     0.190953  Biso 1.000000     O
    O   1.0     0.595492     0.602161     0.626088  Biso 1.000000     O
    O   1.0     0.648324     0.521690     0.687604  Biso 1.000000     O
    O   1.0     0.404849     0.486900     0.949443  Biso 1.000000     O
    O   1.0     0.337744     0.559680     0.024870  Biso 1.000000     O
    O   1.0     0.290222     0.907666    -0.000147  Biso 1.000000     O
    O   1.0     0.364170    -0.007917     0.000000  Biso 1.000000     O
    O   1.0     0.621802     0.002731     0.730176  Biso 1.000000     O
    O   1.0     0.683410     0.920704     0.687963  Biso 1.000000     O
    O   1.0     0.404383     0.400205     0.124768  Biso 1.000000     O
    O   1.0     0.346819     0.479369     0.187224  Biso 1.000000     O
    O   1.0     0.586593     0.514844     0.452882  Biso 1.000000     O
    O   1.0     0.658069     0.442386     0.526193  Biso 1.000000     O
    O   1.0     0.707191     0.092411     0.503801  Biso 1.000000     O
    O   1.0     0.632550     0.000000     0.512393  Biso 1.000000     O
    O   1.0     0.373927     0.998411     0.230440  Biso 1.000000     O
    O   1.0     0.315089     0.080752     0.186965  Biso 1.000000     O
   Cl   1.0     0.011333     0.260034     0.711721  Biso 1.000000    Cl
   Cl   1.0     0.975441     0.242269     0.020471  Biso 1.000000    Cl
   Cl   1.0     0.986563     0.740475     0.210806  Biso 1.000000    Cl
   Cl   1.0     0.020625     0.758711     0.519868  Biso 1.000000    Cl
   Cl   1.0     0.486976     0.759374     0.714275  Biso 1.000000    Cl
   Cl   1.0     0.523415     0.744444     0.023498  Biso 1.000000    Cl
   Cl   1.0     0.513911     0.242147     0.212840  Biso 1.000000    Cl
   Cl   1.0     0.476024     0.256661     0.521861  Biso 1.000000    Cl
   Zn   1.0     0.843726     0.067357     0.519052  Biso 1.000000    Zn
   Zn   1.0     0.733410     0.977116     0.605716  Biso 1.000000    Zn
   Zn   1.0     0.155154     0.932822     0.000000  Biso 1.000000    Zn
   Zn   1.0     0.262539     0.023304     0.106611  Biso 1.000000    Zn
   Zn   1.0     0.653191     0.569173     0.523277  Biso 1.000000    Zn
   Zn   1.0     0.760585     0.479208     0.612907  Biso 1.000000    Zn
   Zn   1.0     0.342621     0.432959     0.000000  Biso 1.000000    Zn
   Zn   1.0     0.235072     0.523021     0.110353  Biso 1.000000    Zn
   Pt   1.0    -0.010162     0.250285     0.865986  Biso 1.000000    Pt
   Pt   1.0     0.000000     0.750393     0.365256  Biso 1.000000    Pt
   Pt   1.0     0.508918     0.751128     0.868844  Biso 1.000000    Pt
   Pt   1.0     0.491338     0.250230     0.367241  Biso 1.000000    Pt
