#======================================================================

# CRYSTAL DATA

#----------------------------------------------------------------------

data_VESTA_phase_1


_pd_phase_name                         MOF
_cell_length_a                         18.40200
_cell_length_b                         18.41800
_cell_length_c                         18.41200
_cell_angle_alpha                      60.33400
_cell_angle_beta                       60.26400
_cell_angle_gamma                      60.26800
_symmetry_space_group_name_H-M         "P 1"
_symmetry_Int_Tables_number            1

loop_
_symmetry_equiv_pos_as_xyz
   "x, y, z"

loop_
   _atom_site_label
   _atom_site_occupancy
   _atom_site_fract_x
   _atom_site_fract_y
   _atom_site_fract_z
   _atom_site_adp_type
   _atom_site_B_iso_or_equiv
   _atom_site_type_symbol
    H   1.0     0.550285     0.067899     0.335856  Biso 1.000000     H
    H   1.0     0.546207     0.835874     0.567877  Biso 1.000000     H
    H   1.0     0.549744     0.067316     0.048222  Biso 1.000000     H
    H   1.0     0.546566     0.835916     0.047793  Biso 1.000000     H
    H   1.0     0.068319     0.835872     0.048400  Biso 1.000000     H
    H   1.0     0.931642     0.449877     0.664149  Biso 1.000000     H
    H   1.0     0.164389     0.453573     0.432197  Biso 1.000000     H
    H   1.0     0.932379     0.450381     0.952007  Biso 1.000000     H
    H   1.0     0.164334     0.453138     0.952069  Biso 1.000000     H
    H   1.0     0.164383     0.932143     0.951269  Biso 1.000000     H
    H   1.0     0.449720     0.932093     0.664162  Biso 1.000000     H
    H   1.0     0.453799     0.164118     0.432141  Biso 1.000000     H
    H   1.0     0.450262     0.932676     0.951796  Biso 1.000000     H
    H   1.0     0.453440     0.164075     0.952225  Biso 1.000000     H
    H   1.0     0.931687     0.164120     0.951620  Biso 1.000000     H
    H   1.0     0.068364     0.550115     0.335869  Biso 1.000000     H
    H   1.0     0.835617     0.546419     0.567821  Biso 1.000000     H
    H   1.0     0.067627     0.549611     0.048011  Biso 1.000000     H
    H   1.0     0.835672     0.546854     0.047949  Biso 1.000000     H
    H   1.0     0.835623     0.067849     0.048751  Biso 1.000000     H
    H   1.0     0.547252     0.547401     0.335854  Biso 1.000000     H
    H   1.0     0.548773     0.548876     0.567622  Biso 1.000000     H
    H   1.0     0.452754     0.452591     0.664164  Biso 1.000000     H
    H   1.0     0.451233     0.451117     0.432396  Biso 1.000000     H
    C   1.0     0.611316     0.889072     0.389031  Biso 1.000000     C
    C   1.0     0.553755     0.946382     0.446367  Biso 1.000000     C
    C   1.0     0.527859     0.038943     0.407766  Biso 1.000000     C
    C   1.0     0.525568     0.907768     0.538935  Biso 1.000000     C
    C   1.0     0.611038     0.888525     0.110868  Biso 1.000000     C
    C   1.0     0.553725     0.946047     0.053535  Biso 1.000000     C
    C   1.0     0.527555     0.038601     0.026720  Biso 1.000000     C
    C   1.0     0.525784     0.907788     0.026505  Biso 1.000000     C
    C   1.0     0.039163     0.907765     0.026801  Biso 1.000000     C
    C   1.0     0.110778     0.388595     0.611044  Biso 1.000000     C
    C   1.0     0.053522     0.446154     0.553696  Biso 1.000000     C
    C   1.0     0.960824     0.472244     0.592246  Biso 1.000000     C
    C   1.0     0.092369     0.474322     0.461127  Biso 1.000000     C
    C   1.0     0.111439     0.388774     0.889194  Biso 1.000000     C
    C   1.0     0.053909     0.446166     0.946523  Biso 1.000000     C
    C   1.0     0.961233     0.472524     0.973412  Biso 1.000000     C
    C   1.0     0.092341     0.474055     0.973424  Biso 1.000000     C
    C   1.0     0.092364     0.961084     0.973025  Biso 1.000000     C
    C   1.0     0.388690     0.110921     0.610987  Biso 1.000000     C
    C   1.0     0.446250     0.053610     0.553651  Biso 1.000000     C
    C   1.0     0.472147     0.961050     0.592252  Biso 1.000000     C
    C   1.0     0.474438     0.092224     0.461083  Biso 1.000000     C
    C   1.0     0.388966     0.111467     0.889152  Biso 1.000000     C
    C   1.0     0.446282     0.053945     0.946481  Biso 1.000000     C
    C   1.0     0.472451     0.961390     0.973299  Biso 1.000000     C
    C   1.0     0.474221     0.092203     0.973514  Biso 1.000000     C
    C   1.0     0.960844     0.092227     0.973216  Biso 1.000000     C
    C   1.0     0.889228     0.611398     0.388975  Biso 1.000000     C
    C   1.0     0.946484     0.553837     0.446323  Biso 1.000000     C
    C   1.0     0.039182     0.527748     0.407773  Biso 1.000000     C
    C   1.0     0.907637     0.525670     0.538892  Biso 1.000000     C
    C   1.0     0.888567     0.611219     0.110824  Biso 1.000000     C
    C   1.0     0.946098     0.553825     0.053496  Biso 1.000000     C
    C   1.0     0.038773     0.527469     0.026606  Biso 1.000000     C
    C   1.0     0.907665     0.525938     0.026593  Biso 1.000000     C
    C   1.0     0.907643     0.038908     0.026993  Biso 1.000000     C
    C   1.0     0.610803     0.611071     0.388735  Biso 1.000000     C
    C   1.0     0.553538     0.553705     0.446182  Biso 1.000000     C
    C   1.0     0.526196     0.526245     0.407765  Biso 1.000000     C
    C   1.0     0.527039     0.527058     0.538772  Biso 1.000000     C
    C   1.0     0.889202     0.889032     0.111878  Biso 1.000000     C
    C   1.0     0.946470     0.946343     0.054178  Biso 1.000000     C
    C   1.0     0.389206     0.388919     0.611283  Biso 1.000000     C
    C   1.0     0.446466     0.446288     0.553837  Biso 1.000000     C
    C   1.0     0.473811     0.473746     0.592254  Biso 1.000000     C
    C   1.0     0.472968     0.472933     0.461246  Biso 1.000000     C
    C   1.0     0.110805     0.110960     0.888136  Biso 1.000000     C
    C   1.0     0.053537     0.053649     0.945845  Biso 1.000000     C
    O   1.0     0.633432     0.805411     0.428501  Biso 1.000000     O
    O   1.0     0.633482     0.928545     0.305344  Biso 1.000000     O
    O   1.0     0.632469     0.804852     0.132977  Biso 1.000000     O
    O   1.0     0.633847     0.927948     0.132903  Biso 1.000000     O
    O   1.0     0.928804     0.805365     0.134175  Biso 1.000000     O
    O   1.0     0.194593     0.366493     0.571553  Biso 1.000000     O
    O   1.0     0.071147     0.366331     0.694743  Biso 1.000000     O
    O   1.0     0.195246     0.367144     0.867136  Biso 1.000000     O
    O   1.0     0.071891     0.366101     0.867150  Biso 1.000000     O
    O   1.0     0.194610     0.071475     0.865912  Biso 1.000000     O
    O   1.0     0.366574     0.194581     0.571518  Biso 1.000000     O
    O   1.0     0.366523     0.071447     0.694674  Biso 1.000000     O
    O   1.0     0.367537     0.195140     0.867042  Biso 1.000000     O
    O   1.0     0.366161     0.072044     0.867114  Biso 1.000000     O
    O   1.0     0.071202     0.194627     0.865844  Biso 1.000000     O
    O   1.0     0.805413     0.633498     0.428465  Biso 1.000000     O
    O   1.0     0.928859     0.633662     0.305275  Biso 1.000000     O
    O   1.0     0.804760     0.632849     0.132882  Biso 1.000000     O
    O   1.0     0.928116     0.633890     0.132869  Biso 1.000000     O
    O   1.0     0.805396     0.928517     0.134108  Biso 1.000000     O
    O   1.0     0.749949     0.749898     0.249917  Biso 1.000000     O
    O   1.0     0.633245     0.633369     0.428254  Biso 1.000000     O
    O   1.0     0.632493     0.633011     0.305018  Biso 1.000000     O
    O   1.0     0.250057     0.250094     0.750102  Biso 1.000000     O
    O   1.0     0.366760     0.366624     0.571764  Biso 1.000000     O
    O   1.0     0.367513     0.366981     0.695001  Biso 1.000000     O
   Zn   1.0     0.880448     0.706900     0.206824  Biso 1.000000    Zn
   Zn   1.0     0.293136     0.119825     0.793203  Biso 1.000000    Zn
   Zn   1.0     0.119558     0.293092     0.793194  Biso 1.000000    Zn
   Zn   1.0     0.706870     0.880167     0.206815  Biso 1.000000    Zn
   Zn   1.0     0.706782     0.706810     0.380236  Biso 1.000000    Zn
   Zn   1.0     0.705920     0.706282     0.206279  Biso 1.000000    Zn
   Zn   1.0     0.293224     0.293182     0.619782  Biso 1.000000    Zn
   Zn   1.0     0.294087     0.293709     0.793740  Biso 1.000000    Zn
