#======================================================================

# CRYSTAL DATA

#----------------------------------------------------------------------

data_VESTA_phase_1


_pd_phase_name                         MOF
_cell_length_a                         13.19000
_cell_length_b                         13.94700
_cell_length_c                         16.98800
_cell_angle_alpha                      89.97400
_cell_angle_beta                       89.98700
_cell_angle_gamma                      90.12600
_symmetry_space_group_name_H-M         "P 1"
_symmetry_Int_Tables_number            1

loop_
_symmetry_equiv_pos_as_xyz
   "x, y, z"

loop_
   _atom_site_label
   _atom_site_occupancy
   _atom_site_fract_x
   _atom_site_fract_y
   _atom_site_fract_z
   _atom_site_adp_type
   _atom_site_B_iso_or_equiv
   _atom_site_type_symbol
    H   1.0     0.239863     0.361572     0.491641  Biso 1.000000     H
    H   1.0     0.441673     0.199220     0.348700  Biso 1.000000     H
    H   1.0     0.349192     0.650375     0.666057  Biso 1.000000     H
    H   1.0     0.226083     0.612056     0.682063  Biso 1.000000     H
    H   1.0     0.562693     0.229579     0.638433  Biso 1.000000     H
    H   1.0     0.566745     0.338915     0.591063  Biso 1.000000     H
    H   1.0     0.759959     0.138610    -0.008206  Biso 1.000000     H
    H   1.0     0.559291     0.301217     0.848638  Biso 1.000000     H
    H   1.0     0.650158     0.849823     0.166382  Biso 1.000000     H
    H   1.0     0.773218     0.888264     0.182658  Biso 1.000000     H
    H   1.0     0.437016     0.271241     0.138092  Biso 1.000000     H
    H   1.0     0.433215     0.161733     0.091233  Biso 1.000000     H
    H   1.0     0.740308     0.638862     0.000000  Biso 1.000000     H
    H   1.0     0.940526     0.800613     0.151110  Biso 1.000000     H
    H   1.0     0.848326     0.350907     0.833550  Biso 1.000000     H
    H   1.0     0.725614     0.389574     0.817275  Biso 1.000000     H
    H   1.0     0.064892     0.771705     0.862208  Biso 1.000000     H
    H   1.0     0.068060     0.662198     0.908964  Biso 1.000000     H
    H   1.0     0.259918     0.861528     0.509031  Biso 1.000000     H
    H   1.0     0.058908     0.699457     0.651235  Biso 1.000000     H
    H   1.0     0.151856     0.149799     0.333860  Biso 1.000000     H
    H   1.0     0.274868     0.111684     0.317929  Biso 1.000000     H
    H   1.0     0.935339     0.728483     0.362149  Biso 1.000000     H
    H   1.0     0.932017     0.837994     0.408829  Biso 1.000000     H
    H   1.0     0.759624     0.638913     0.507736  Biso 1.000000     H
    H   1.0     0.558631     0.801008     0.651365  Biso 1.000000     H
    H   1.0     0.650305     0.349759     0.333670  Biso 1.000000     H
    H   1.0     0.773371     0.388162     0.317424  Biso 1.000000     H
    H   1.0     0.437144     0.771163     0.361728  Biso 1.000000     H
    H   1.0     0.433263     0.661604     0.408644  Biso 1.000000     H
    H   1.0     0.239998     0.861753     0.000000  Biso 1.000000     H
    H   1.0     0.440992     0.699200     0.151338  Biso 1.000000     H
    H   1.0     0.349797     0.150421     0.833633  Biso 1.000000     H
    H   1.0     0.226743     0.111973     0.817378  Biso 1.000000     H
    H   1.0     0.563008     0.729458     0.861951  Biso 1.000000     H
    H   1.0     0.567176     0.838791     0.908935  Biso 1.000000     H
    H   1.0     0.259885     0.361477    -0.009002  Biso 1.000000     H
    H   1.0     0.059298     0.199514     0.848857  Biso 1.000000     H
    H   1.0     0.151702     0.649617     0.166099  Biso 1.000000     H
    H   1.0     0.274694     0.611461     0.182095  Biso 1.000000     H
    H   1.0     0.935133     0.228375     0.137815  Biso 1.000000     H
    H   1.0     0.931911     0.337903     0.091091  Biso 1.000000     H
    H   1.0     0.740214     0.138782     0.491051  Biso 1.000000     H
    H   1.0     0.940682     0.300755     0.348790  Biso 1.000000     H
    H   1.0     0.848205     0.850508     0.666235  Biso 1.000000     H
    H   1.0     0.725210     0.888674     0.682186  Biso 1.000000     H
    H   1.0     0.064740     0.271695     0.637740  Biso 1.000000     H
    H   1.0     0.068013     0.162225     0.591020  Biso 1.000000     H
    C   1.0     0.421277     0.515986     0.279844  Biso 1.000000     C
    C   1.0     0.463287     0.416470     0.256316  Biso 1.000000     C
    C   1.0     0.299829     0.547122     0.592410  Biso 1.000000     C
    C   1.0     0.275470     0.422716     0.519877  Biso 1.000000     C
    C   1.0     0.530586     0.220388     0.523007  Biso 1.000000     C
    C   1.0     0.470436     0.190740     0.407915  Biso 1.000000     C
    C   1.0     0.578631     0.984115     0.779929  Biso 1.000000     C
    C   1.0     0.536671     0.083653     0.756363  Biso 1.000000     C
    C   1.0     0.699723     0.953235     0.092799  Biso 1.000000     C
    C   1.0     0.724289     0.077492     0.020079  Biso 1.000000     C
    C   1.0     0.469631     0.280097     0.022768  Biso 1.000000     C
    C   1.0     0.530238     0.309710     0.907775  Biso 1.000000     C
    C   1.0     0.921432     0.483761     0.219831  Biso 1.000000     C
    C   1.0     0.963426     0.583346     0.243633  Biso 1.000000     C
    C   1.0     0.799204     0.453809     0.907500  Biso 1.000000     C
    C   1.0     0.775551     0.577777     0.980495  Biso 1.000000     C
    C   1.0     0.031530     0.780290     0.977345  Biso 1.000000     C
    C   1.0     0.969899     0.809345     0.092065  Biso 1.000000     C
    C   1.0     0.078563     0.016321     0.719869  Biso 1.000000     C
    C   1.0     0.036577     0.916732     0.743693  Biso 1.000000     C
    C   1.0     0.200940     0.046775     0.407785  Biso 1.000000     C
    C   1.0     0.224634     0.922628     0.480646  Biso 1.000000     C
    C   1.0     0.968413     0.719881     0.477337  Biso 1.000000     C
    C   1.0     0.029690     0.690753     0.592157  Biso 1.000000     C
    C   1.0     0.578542     0.486561     0.720088  Biso 1.000000     C
    C   1.0     0.534752     0.585067     0.743980  Biso 1.000000     C
    C   1.0     0.699719     0.453265     0.407108  Biso 1.000000     C
    C   1.0     0.724033     0.577725     0.479549  Biso 1.000000     C
    C   1.0     0.469625     0.779947     0.477058  Biso 1.000000     C
    C   1.0     0.529891     0.809498     0.592145  Biso 1.000000     C
    C   1.0     0.421362     0.016084     0.220152  Biso 1.000000     C
    C   1.0     0.463324     0.916540     0.243685  Biso 1.000000     C
    C   1.0     0.300227     0.047074     0.907269  Biso 1.000000     C
    C   1.0     0.275670     0.922852     0.980028  Biso 1.000000     C
    C   1.0     0.530790     0.720364     0.977254  Biso 1.000000     C
    C   1.0     0.470049     0.690727     0.092206  Biso 1.000000     C
    C   1.0     0.078506     0.516278     0.780101  Biso 1.000000     C
    C   1.0     0.036554     0.416681     0.756318  Biso 1.000000     C
    C   1.0     0.200867     0.546650     0.092213  Biso 1.000000     C
    C   1.0     0.224589     0.422558     0.019368  Biso 1.000000     C
    C   1.0     0.968426     0.219831     0.022667  Biso 1.000000     C
    C   1.0     0.029969     0.190779     0.907915  Biso 1.000000     C
    C   1.0     0.921434     0.983747     0.280176  Biso 1.000000     C
    C   1.0     0.963407     0.083344     0.256336  Biso 1.000000     C
    C   1.0     0.799133     0.953521     0.592300  Biso 1.000000     C
    C   1.0     0.775469     0.077667     0.519434  Biso 1.000000     C
    C   1.0     0.031458     0.280336     0.522598  Biso 1.000000     C
    C   1.0     0.969962     0.309444     0.407851  Biso 1.000000     C
    N   1.0     0.227331     0.481286     0.571827  Biso 1.000000     N
    N   1.0     0.370910     0.448720     0.508090  Biso 1.000000     N
    N   1.0     0.387349     0.529612     0.554273  Biso 1.000000     N
    N   1.0     0.284436     0.621891     0.642487  Biso 1.000000     N
    N   1.0     0.484951     0.105967     0.441443  Biso 1.000000     N
    N   1.0     0.524328     0.123831     0.516309  Biso 1.000000     N
    N   1.0     0.497155     0.264369     0.455828  Biso 1.000000     N
    N   1.0     0.570988     0.265818     0.586373  Biso 1.000000     N
    N   1.0     0.772324     0.018972     0.072156  Biso 1.000000     N
    N   1.0     0.628860     0.051510     0.008251  Biso 1.000000     N
    N   1.0     0.612293     0.970710     0.054569  Biso 1.000000     N
    N   1.0     0.714922     0.878538     0.143040  Biso 1.000000     N
    N   1.0     0.515580     0.394489     0.941205  Biso 1.000000     N
    N   1.0     0.475919     0.376657     0.016002  Biso 1.000000     N
    N   1.0     0.503326     0.236066     0.955684  Biso 1.000000     N
    N   1.0     0.428979     0.234827     0.086116  Biso 1.000000     N
    N   1.0     0.727068     0.519677     0.928186  Biso 1.000000     N
    N   1.0     0.870766     0.551421     0.992422  Biso 1.000000     N
    N   1.0     0.886674     0.470754     0.945933  Biso 1.000000     N
    N   1.0     0.783643     0.379383     0.857002  Biso 1.000000     N
    N   1.0     0.984348     0.894283     0.058668  Biso 1.000000     N
    N   1.0     0.024731     0.876806     0.984037  Biso 1.000000     N
    N   1.0     0.997566     0.735967     0.044311  Biso 1.000000     N
    N   1.0     0.072851     0.735286     0.914210  Biso 1.000000     N
    N   1.0     0.273165     0.980977     0.428482  Biso 1.000000     N
    N   1.0     0.129318     0.948751     0.492463  Biso 1.000000     N
    N   1.0     0.113377     0.029528     0.446055  Biso 1.000000     N
    N   1.0     0.216491     0.121411     0.357452  Biso 1.000000     N
    N   1.0     0.015313     0.605841     0.558762  Biso 1.000000     N
    N   1.0     0.975151     0.623365     0.484071  Biso 1.000000     N
    N   1.0     0.002184     0.764171     0.544346  Biso 1.000000     N
    N   1.0     0.927292     0.764898     0.414120  Biso 1.000000     N
    N   1.0     0.772243     0.519075     0.427671  Biso 1.000000     N
    N   1.0     0.628584     0.551771     0.491321  Biso 1.000000     N
    N   1.0     0.612193     0.470823     0.445206  Biso 1.000000     N
    N   1.0     0.715037     0.378446     0.357041  Biso 1.000000     N
    N   1.0     0.515311     0.894301     0.558684  Biso 1.000000     N
    N   1.0     0.475871     0.876510     0.483830  Biso 1.000000     N
    N   1.0     0.503180     0.735906     0.544201  Biso 1.000000     N
    N   1.0     0.429098     0.734702     0.413707  Biso 1.000000     N
    N   1.0     0.227632     0.981345     0.927932  Biso 1.000000     N
    N   1.0     0.371096     0.948837     0.991850  Biso 1.000000     N
    N   1.0     0.387658     0.029625     0.945512  Biso 1.000000     N
    N   1.0     0.285028     0.121748     0.857000  Biso 1.000000     N
    N   1.0     0.484731     0.605961     0.058757  Biso 1.000000     N
    N   1.0     0.524488     0.623811     0.984003  Biso 1.000000     N
    N   1.0     0.497017     0.764355     0.044319  Biso 1.000000     N
    N   1.0     0.571550     0.765694     0.913964  Biso 1.000000     N
    N   1.0     0.273078     0.480836     0.071548  Biso 1.000000     N
    N   1.0     0.129300     0.448732     0.007516  Biso 1.000000     N
    N   1.0     0.113348     0.529472     0.053913  Biso 1.000000     N
    N   1.0     0.216368     0.621230     0.142550  Biso 1.000000     N
    N   1.0     0.015550     0.105844     0.941319  Biso 1.000000     N
    N   1.0     0.975232     0.123321     0.015966  Biso 1.000000     N
    N   1.0     0.002337     0.264156     0.955686  Biso 1.000000     N
    N   1.0     0.927135     0.264813     0.085824  Biso 1.000000     N
    N   1.0     0.726939     0.019362     0.571629  Biso 1.000000     N
    N   1.0     0.870754     0.051474     0.507578  Biso 1.000000     N
    N   1.0     0.886675     0.970701     0.553986  Biso 1.000000     N
    N   1.0     0.783570     0.878913     0.642655  Biso 1.000000     N
    N   1.0     0.984275     0.394358     0.441269  Biso 1.000000     N
    N   1.0     0.024569     0.376845     0.515917  Biso 1.000000     N
    N   1.0     0.997646     0.236033     0.455607  Biso 1.000000     N
    N   1.0     0.072770     0.235317     0.585748  Biso 1.000000     N
    O   1.0     0.470925     0.395729     0.183804  Biso 1.000000     O
    O   1.0     0.394904     0.569982     0.223868  Biso 1.000000     O
    O   1.0     0.489029     0.359291     0.310689  Biso 1.000000     O
    O   1.0     0.418244     0.532893     0.353163  Biso 1.000000     O
    O   1.0     0.529045     0.104399     0.683848  Biso 1.000000     O
    O   1.0     0.604990     0.930124     0.723971  Biso 1.000000     O
    O   1.0     0.510962     0.140854     0.810708  Biso 1.000000     O
    O   1.0     0.581688     0.967215     0.853258  Biso 1.000000     O
    O   1.0     0.969274     0.604404     0.316180  Biso 1.000000     O
    O   1.0     0.893472     0.429913     0.275517  Biso 1.000000     O
    O   1.0    -0.009126     0.640248     0.189450  Biso 1.000000     O
    O   1.0     0.919973     0.466751     0.146494  Biso 1.000000     O
    O   1.0     0.030752     0.895636     0.816249  Biso 1.000000     O
    O   1.0     0.106528     0.070118     0.775560  Biso 1.000000     O
    O   1.0     0.000000     0.859897     0.689524  Biso 1.000000     O
    O   1.0     0.080037     0.033357     0.646534  Biso 1.000000     O
    O   1.0     0.528070     0.605386     0.816608  Biso 1.000000     O
    O   1.0     0.605613     0.432575     0.775821  Biso 1.000000     O
    O   1.0     0.506908     0.641559     0.689794  Biso 1.000000     O
    O   1.0     0.582188     0.470260     0.646646  Biso 1.000000     O
    O   1.0     0.470967     0.895767     0.316196  Biso 1.000000     O
    O   1.0     0.395073     0.070073     0.276142  Biso 1.000000     O
    O   1.0     0.489038     0.859376     0.189321  Biso 1.000000     O
    O   1.0     0.418247     0.032988     0.146827  Biso 1.000000     O
    O   1.0     0.030720     0.395620     0.683771  Biso 1.000000     O
    O   1.0     0.106364     0.570136     0.724384  Biso 1.000000     O
    O   1.0     0.000000     0.359789     0.810511  Biso 1.000000     O
    O   1.0     0.080023     0.533282     0.853436  Biso 1.000000     O
    O   1.0     0.969245     0.104408     0.183774  Biso 1.000000     O
    O   1.0     0.893457     0.929939     0.224504  Biso 1.000000     O
    O   1.0    -0.009137     0.140227     0.310484  Biso 1.000000     O
    O   1.0     0.919975     0.966708     0.353515  Biso 1.000000     O
   Zn   1.0     0.476005     0.408592     0.426828  Biso 1.000000    Zn
   Zn   1.0     0.425773     0.480126     0.093273  Biso 1.000000    Zn
   Zn   1.0     0.523960     0.091613     0.926873  Biso 1.000000    Zn
   Zn   1.0     0.574249     0.020040     0.593336  Biso 1.000000    Zn
   Zn   1.0     0.977556     0.591435     0.073064  Biso 1.000000    Zn
   Zn   1.0     0.924484     0.519731     0.406730  Biso 1.000000    Zn
   Zn   1.0     0.022424     0.908599     0.573082  Biso 1.000000    Zn
   Zn   1.0     0.075447     0.980550     0.906694  Biso 1.000000    Zn
   Zn   1.0     0.523618     0.591650     0.573165  Biso 1.000000    Zn
   Zn   1.0     0.574361     0.520379     0.906600  Biso 1.000000    Zn
   Zn   1.0     0.476037     0.908548     0.073147  Biso 1.000000    Zn
   Zn   1.0     0.425859     0.980187     0.406722  Biso 1.000000    Zn
   Zn   1.0     0.022432     0.408615     0.926923  Biso 1.000000    Zn
   Zn   1.0     0.075323     0.480536     0.593265  Biso 1.000000    Zn
   Zn   1.0     0.977584     0.091492     0.426910  Biso 1.000000    Zn
   Zn   1.0     0.924527     0.019613     0.093299  Biso 1.000000    Zn
