#======================================================================

# CRYSTAL DATA

#----------------------------------------------------------------------

data_VESTA_phase_1


_pd_phase_name                         MOF
_cell_length_a                         20.81800
_cell_length_b                         14.18400
_cell_length_c                         14.21200
_cell_angle_alpha                      105.28500
_cell_angle_beta                       97.02300
_cell_angle_gamma                      95.79800
_symmetry_space_group_name_H-M         "P 1"
_symmetry_Int_Tables_number            1

loop_
_symmetry_equiv_pos_as_xyz
   "x, y, z"

loop_
   _atom_site_label
   _atom_site_occupancy
   _atom_site_fract_x
   _atom_site_fract_y
   _atom_site_fract_z
   _atom_site_adp_type
   _atom_site_B_iso_or_equiv
   _atom_site_type_symbol
    H   1.0     0.499965     0.406860     0.483613  Biso 1.000000     H
    H   1.0     0.999968     0.406859     0.483613  Biso 1.000000     H
    H   1.0     0.474586     0.421420     0.301925  Biso 1.000000     H
    H   1.0     0.974589     0.421419     0.301926  Biso 1.000000     H
    H   1.0     0.252962     0.272994     0.179713  Biso 1.000000     H
    H   1.0     0.752963     0.273001     0.179715  Biso 1.000000     H
    H   1.0     0.234755     0.260767    -0.011266  Biso 1.000000     H
    H   1.0     0.734756     0.260773    -0.011263  Biso 1.000000     H
    H   1.0     0.234023     0.035695     0.611330  Biso 1.000000     H
    H   1.0     0.734026     0.035695     0.611324  Biso 1.000000     H
    H   1.0     0.181241     0.309402     0.612445  Biso 1.000000     H
    H   1.0     0.681242     0.309403     0.612448  Biso 1.000000     H
    H   1.0     0.121573     0.951176     0.543911  Biso 1.000000     H
    H   1.0     0.621576     0.951176     0.543904  Biso 1.000000     H
    H   1.0     0.063889     0.237395     0.549828  Biso 1.000000     H
    H   1.0     0.563890     0.237395     0.549831  Biso 1.000000     H
    H   1.0     0.480687     0.102518     0.501792  Biso 1.000000     H
    H   1.0     0.980689     0.102519     0.501794  Biso 1.000000     H
    H   1.0     0.247969     0.521445     0.591420  Biso 1.000000     H
    H   1.0     0.747970     0.521444     0.591420  Biso 1.000000     H
    H   1.0     0.274979     0.702110     0.576433  Biso 1.000000     H
    H   1.0     0.774980     0.702110     0.576433  Biso 1.000000     H
    H   1.0     0.497520     0.816548     0.726710  Biso 1.000000     H
    H   1.0     0.997521     0.816548     0.726713  Biso 1.000000     H
    H   1.0     0.015989     0.000000     0.740124  Biso 1.000000     H
    H   1.0     0.515992     0.000000     0.740122  Biso 1.000000     H
    H   1.0     0.017280     0.390547     0.966840  Biso 1.000000     H
    H   1.0     0.517281     0.390552     0.966839  Biso 1.000000     H
    H   1.0     0.065387     0.383987     0.691462  Biso 1.000000     H
    H   1.0     0.565389     0.383988     0.691461  Biso 1.000000     H
    H   1.0     0.130188     0.458299     0.050353  Biso 1.000000     H
    H   1.0     0.630188     0.458307     0.050353  Biso 1.000000     H
    H   1.0     0.183139     0.446751     0.762413  Biso 1.000000     H
    H   1.0     0.683140     0.446755     0.762413  Biso 1.000000     H
    H   1.0     0.267751     0.496489     0.896987  Biso 1.000000     H
    H   1.0     0.767753     0.496486     0.896986  Biso 1.000000     H
    H   1.0     0.000024     0.593141     0.516359  Biso 1.000000     H
    H   1.0     0.500030     0.593148     0.516356  Biso 1.000000     H
    H   1.0     0.025404     0.578589     0.698049  Biso 1.000000     H
    H   1.0     0.525410     0.578593     0.698045  Biso 1.000000     H
    H   1.0     0.247037     0.726980     0.820246  Biso 1.000000     H
    H   1.0     0.747040     0.726993     0.820247  Biso 1.000000     H
    H   1.0     0.265245     0.739223     0.000000  Biso 1.000000     H
    H   1.0     0.765248     0.739231     0.000000  Biso 1.000000     H
    H   1.0     0.265978     0.964323     0.388654  Biso 1.000000     H
    H   1.0     0.765980     0.964325     0.388653  Biso 1.000000     H
    H   1.0     0.318762     0.690612     0.387518  Biso 1.000000     H
    H   1.0     0.818762     0.690614     0.387514  Biso 1.000000     H
    H   1.0     0.378428     0.048840     0.456075  Biso 1.000000     H
    H   1.0     0.878429     0.048842     0.456076  Biso 1.000000     H
    H   1.0     0.436113     0.762618     0.450136  Biso 1.000000     H
    H   1.0     0.936114     0.762618     0.450133  Biso 1.000000     H
    H   1.0     0.019314     0.897496     0.498179  Biso 1.000000     H
    H   1.0     0.519317     0.897495     0.498178  Biso 1.000000     H
    H   1.0     0.252036     0.478568     0.408535  Biso 1.000000     H
    H   1.0     0.752036     0.478571     0.408538  Biso 1.000000     H
    H   1.0     0.225026     0.297904     0.423526  Biso 1.000000     H
    H   1.0     0.725025     0.297906     0.423527  Biso 1.000000     H
    H   1.0     0.002481     0.183467     0.273256  Biso 1.000000     H
    H   1.0     0.502482     0.183469     0.273254  Biso 1.000000     H
    H   1.0     0.484011    -0.007567     0.259848  Biso 1.000000     H
    H   1.0     0.984013    -0.007568     0.259853  Biso 1.000000     H
    H   1.0     0.482722     0.609458     0.033128  Biso 1.000000     H
    H   1.0     0.982724     0.609461     0.033130  Biso 1.000000     H
    H   1.0     0.434617     0.616023     0.308507  Biso 1.000000     H
    H   1.0     0.934617     0.616022     0.308508  Biso 1.000000     H
    H   1.0     0.369814     0.541707     0.949616  Biso 1.000000     H
    H   1.0     0.869816     0.541709     0.949617  Biso 1.000000     H
    H   1.0     0.316864     0.553263     0.237558  Biso 1.000000     H
    H   1.0     0.816865     0.553259     0.237558  Biso 1.000000     H
    H   1.0     0.232251     0.503514     0.102984  Biso 1.000000     H
    H   1.0     0.732251     0.503525     0.102985  Biso 1.000000     H
    C   1.0     0.405079     0.283606     0.548370  Biso 1.000000     C
    C   1.0     0.905080     0.283608     0.548372  Biso 1.000000     C
    C   1.0     0.411068     0.302440     0.452271  Biso 1.000000     C
    C   1.0     0.911070     0.302442     0.452272  Biso 1.000000     C
    C   1.0     0.458097     0.365883     0.429799  Biso 1.000000     C
    C   1.0     0.958099     0.365883     0.429800  Biso 1.000000     C
    C   1.0     0.444453     0.373396     0.332572  Biso 1.000000     C
    C   1.0     0.944456     0.373397     0.332573  Biso 1.000000     C
    C   1.0     0.386800     0.314893     0.279828  Biso 1.000000     C
    C   1.0     0.886802     0.314896     0.279830  Biso 1.000000     C
    C   1.0     0.357834     0.303641     0.178993  Biso 1.000000     C
    C   1.0     0.857836     0.303644     0.178995  Biso 1.000000     C
    C   1.0     0.292081     0.281967     0.137083  Biso 1.000000     C
    C   1.0     0.792082     0.281972     0.137085  Biso 1.000000     C
    C   1.0     0.282143     0.275989     0.035544  Biso 1.000000     C
    C   1.0     0.782144     0.275994     0.035546  Biso 1.000000     C
    C   1.0     0.339849     0.292623    -0.000415  Biso 1.000000     C
    C   1.0     0.839851     0.292625    -0.000413  Biso 1.000000     C
    C   1.0     0.350191     0.292498     0.898575  Biso 1.000000     C
    C   1.0     0.850193     0.292499     0.898577  Biso 1.000000     C
    C   1.0     0.194636     0.077211     0.596256  Biso 1.000000     C
    C   1.0     0.694638     0.077211     0.596253  Biso 1.000000     C
    C   1.0     0.164984     0.230746     0.597567  Biso 1.000000     C
    C   1.0     0.664985     0.230746     0.597569  Biso 1.000000     C
    C   1.0     0.131205     0.031145     0.559798  Biso 1.000000     C
    C   1.0     0.631207     0.031144     0.559793  Biso 1.000000     C
    C   1.0     0.100310     0.190129     0.562281  Biso 1.000000     C
    C   1.0     0.600311     0.190129     0.562282  Biso 1.000000     C
    C   1.0     0.081354     0.087970     0.543608  Biso 1.000000     C
    C   1.0     0.581356     0.087970     0.543607  Biso 1.000000     C
    C   1.0     0.012767     0.047891     0.509750  Biso 1.000000     C
    C   1.0     0.512769     0.047891     0.509747  Biso 1.000000     C
    C   1.0     0.342702     0.452464     0.715595  Biso 1.000000     C
    C   1.0     0.842704     0.452464     0.715596  Biso 1.000000     C
    C   1.0     0.337499     0.548860     0.696248  Biso 1.000000     C
    C   1.0     0.837500     0.548860     0.696250  Biso 1.000000     C
    C   1.0     0.290502     0.573419     0.632430  Biso 1.000000     C
    C   1.0     0.790503     0.573419     0.632431  Biso 1.000000     C
    C   1.0     0.304989     0.670169     0.624786  Biso 1.000000     C
    C   1.0     0.804989     0.670169     0.624787  Biso 1.000000     C
    C   1.0     0.363227     0.720514     0.683626  Biso 1.000000     C
    C   1.0     0.863228     0.720514     0.683627  Biso 1.000000     C
    C   1.0     0.392622     0.820571     0.695315  Biso 1.000000     C
    C   1.0     0.892623     0.820571     0.695316  Biso 1.000000     C
    C   1.0     0.458449     0.860531     0.717625  Biso 1.000000     C
    C   1.0     0.958449     0.860531     0.717627  Biso 1.000000     C
    C   1.0     0.468522     0.962125     0.724215  Biso 1.000000     C
    C   1.0     0.968523     0.962125     0.724217  Biso 1.000000     C
    C   1.0     0.410832     0.000000     0.707424  Biso 1.000000     C
    C   1.0     0.910832     0.000000     0.707424  Biso 1.000000     C
    C   1.0     0.400451     0.101760     0.708496  Biso 1.000000     C
    C   1.0     0.900452     0.101760     0.708496  Biso 1.000000     C
    C   1.0     0.055751     0.404574     0.924758  Biso 1.000000     C
    C   1.0     0.555751     0.404580     0.924758  Biso 1.000000     C
    C   1.0     0.082844     0.400267     0.770214  Biso 1.000000     C
    C   1.0     0.582845     0.400270     0.770214  Biso 1.000000     C
    C   1.0     0.119407     0.441131     0.970213  Biso 1.000000     C
    C   1.0     0.619408     0.441134     0.970213  Biso 1.000000     C
    C   1.0     0.147656     0.435557     0.810209  Biso 1.000000     C
    C   1.0     0.647658     0.435558     0.810209  Biso 1.000000     C
    C   1.0     0.167976     0.455815     0.912532  Biso 1.000000     C
    C   1.0     0.667977     0.455817     0.912532  Biso 1.000000     C
    C   1.0     0.236662     0.489671     0.952023  Biso 1.000000     C
    C   1.0     0.736663     0.489669     0.952022  Biso 1.000000     C
    C   1.0     0.094920     0.716376     0.451591  Biso 1.000000     C
    C   1.0     0.594923     0.716389     0.451591  Biso 1.000000     C
    C   1.0     0.088929     0.697545     0.547692  Biso 1.000000     C
    C   1.0     0.588933     0.697557     0.547691  Biso 1.000000     C
    C   1.0     0.041896     0.634113     0.570170  Biso 1.000000     C
    C   1.0     0.541901     0.634122     0.570167  Biso 1.000000     C
    C   1.0     0.055539     0.626604     0.667398  Biso 1.000000     C
    C   1.0     0.555545     0.626611     0.667395  Biso 1.000000     C
    C   1.0     0.113196     0.685099     0.720137  Biso 1.000000     C
    C   1.0     0.613200     0.685108     0.720135  Biso 1.000000     C
    C   1.0     0.142163     0.696354     0.820972  Biso 1.000000     C
    C   1.0     0.642167     0.696362     0.820971  Biso 1.000000     C
    C   1.0     0.207918     0.718019     0.862879  Biso 1.000000     C
    C   1.0     0.707921     0.718028     0.862879  Biso 1.000000     C
    C   1.0     0.217857     0.724005     0.964420  Biso 1.000000     C
    C   1.0     0.717859     0.724012     0.964419  Biso 1.000000     C
    C   1.0     0.160150     0.707386     0.000000  Biso 1.000000     C
    C   1.0     0.660153     0.707390     0.000000  Biso 1.000000     C
    C   1.0     0.149809     0.707524     0.101398  Biso 1.000000     C
    C   1.0     0.649811     0.707524     0.101394  Biso 1.000000     C
    C   1.0     0.305366     0.922806     0.403724  Biso 1.000000     C
    C   1.0     0.805367     0.922808     0.403722  Biso 1.000000     C
    C   1.0     0.335018     0.769269     0.402401  Biso 1.000000     C
    C   1.0     0.835019     0.769270     0.402397  Biso 1.000000     C
    C   1.0     0.368797     0.968871     0.440180  Biso 1.000000     C
    C   1.0     0.868799     0.968873     0.440181  Biso 1.000000     C
    C   1.0     0.399693     0.809885     0.437685  Biso 1.000000     C
    C   1.0     0.899693     0.809886     0.437684  Biso 1.000000     C
    C   1.0     0.418648     0.912045     0.456365  Biso 1.000000     C
    C   1.0     0.918649     0.912046     0.456365  Biso 1.000000     C
    C   1.0     0.487235     0.952123     0.490222  Biso 1.000000     C
    C   1.0     0.987236     0.952124     0.490224  Biso 1.000000     C
    C   1.0     0.157302     0.547551     0.284364  Biso 1.000000     C
    C   1.0     0.657302     0.547554     0.284366  Biso 1.000000     C
    C   1.0     0.162504     0.451154     0.303713  Biso 1.000000     C
    C   1.0     0.662504     0.451158     0.303714  Biso 1.000000     C
    C   1.0     0.209502     0.426594     0.367529  Biso 1.000000     C
    C   1.0     0.709502     0.426597     0.367530  Biso 1.000000     C
    C   1.0     0.195015     0.329845     0.375175  Biso 1.000000     C
    C   1.0     0.695015     0.329848     0.375176  Biso 1.000000     C
    C   1.0     0.136775     0.279501     0.316340  Biso 1.000000     C
    C   1.0     0.636775     0.279504     0.316339  Biso 1.000000     C
    C   1.0     0.107379     0.179445     0.304653  Biso 1.000000     C
    C   1.0     0.607380     0.179447     0.304651  Biso 1.000000     C
    C   1.0     0.041553     0.139484     0.282344  Biso 1.000000     C
    C   1.0     0.541553     0.139487     0.282341  Biso 1.000000     C
    C   1.0     0.031479     0.037891     0.275759  Biso 1.000000     C
    C   1.0     0.531480     0.037893     0.275755  Biso 1.000000     C
    C   1.0     0.089170    -0.000039     0.292554  Biso 1.000000     C
    C   1.0     0.589171    -0.000037     0.292549  Biso 1.000000     C
    C   1.0     0.099551     0.898259     0.291489  Biso 1.000000     C
    C   1.0     0.599553     0.898261     0.291482  Biso 1.000000     C
    C   1.0     0.444251     0.595436     0.075211  Biso 1.000000     C
    C   1.0     0.944253     0.595435     0.075212  Biso 1.000000     C
    C   1.0     0.417159     0.599746     0.229755  Biso 1.000000     C
    C   1.0     0.917160     0.599744     0.229756  Biso 1.000000     C
    C   1.0     0.380597     0.558867     0.029756  Biso 1.000000     C
    C   1.0     0.880597     0.558874     0.029757  Biso 1.000000     C
    C   1.0     0.352347     0.564444     0.189760  Biso 1.000000     C
    C   1.0     0.852348     0.564449     0.189761  Biso 1.000000     C
    C   1.0     0.332026     0.544193     0.087438  Biso 1.000000     C
    C   1.0     0.832027     0.544196     0.087439  Biso 1.000000     C
    C   1.0     0.263342     0.510328     0.047947  Biso 1.000000     C
    C   1.0     0.763342     0.510339     0.047948  Biso 1.000000     C
    N   1.0     0.211890     0.175984     0.616185  Biso 1.000000     N
    N   1.0     0.711891     0.175985     0.616186  Biso 1.000000     N
    N   1.0     0.037204     0.383221     0.825861  Biso 1.000000     N
    N   1.0     0.537204     0.383230     0.825861  Biso 1.000000     N
    N   1.0     0.288112     0.824033     0.383793  Biso 1.000000     N
    N   1.0     0.788113     0.824034     0.383787  Biso 1.000000     N
    N   1.0     0.462796     0.616806     0.174110  Biso 1.000000     N
    N   1.0     0.962799     0.616793     0.174110  Biso 1.000000     N
    O   1.0     0.300215     0.279656     0.833107  Biso 1.000000     O
    O   1.0     0.800216     0.279657     0.833108  Biso 1.000000     O
    O   1.0     0.410099     0.305395     0.886367  Biso 1.000000     O
    O   1.0     0.910100     0.305396     0.886368  Biso 1.000000     O
    O   1.0     0.352738     0.231896     0.554231  Biso 1.000000     O
    O   1.0     0.852740     0.231898     0.554233  Biso 1.000000     O
    O   1.0     0.452793     0.322163     0.618426  Biso 1.000000     O
    O   1.0     0.952795     0.322165     0.618427  Biso 1.000000     O
    O   1.0     0.450372     0.166338     0.723235  Biso 1.000000     O
    O   1.0     0.950373     0.166337     0.723235  Biso 1.000000     O
    O   1.0     0.340544     0.115543     0.694559  Biso 1.000000     O
    O   1.0     0.840545     0.115543     0.694560  Biso 1.000000     O
    O   1.0     0.394682     0.444955     0.769116  Biso 1.000000     O
    O   1.0     0.894683     0.444955     0.769117  Biso 1.000000     O
    O   1.0     0.294829     0.383657     0.675717  Biso 1.000000     O
    O   1.0     0.794830     0.383657     0.675719  Biso 1.000000     O
    O   1.0     0.199786     0.720369     0.166867  Biso 1.000000     O
    O   1.0     0.699788     0.720369     0.166863  Biso 1.000000     O
    O   1.0     0.089902     0.694634     0.113609  Biso 1.000000     O
    O   1.0     0.589904     0.694631     0.113604  Biso 1.000000     O
    O   1.0     0.147262     0.768083     0.445731  Biso 1.000000     O
    O   1.0     0.647264     0.768097     0.445731  Biso 1.000000     O
    O   1.0     0.047206     0.677818     0.381534  Biso 1.000000     O
    O   1.0     0.547208     0.677832     0.381535  Biso 1.000000     O
    O   1.0     0.049631     0.833680     0.276753  Biso 1.000000     O
    O   1.0     0.549632     0.833683     0.276745  Biso 1.000000     O
    O   1.0     0.159459     0.884478     0.305427  Biso 1.000000     O
    O   1.0     0.659460     0.884480     0.305420  Biso 1.000000     O
    O   1.0     0.105323     0.555063     0.230846  Biso 1.000000     O
    O   1.0     0.605323     0.555066     0.230847  Biso 1.000000     O
    O   1.0     0.205177     0.616355     0.324241  Biso 1.000000     O
    O   1.0     0.705177     0.616359     0.324242  Biso 1.000000     O
    S   1.0     0.350206     0.250119     0.351881  Biso 1.000000     S
    S   1.0     0.850207     0.250123     0.351884  Biso 1.000000     S
    S   1.0     0.406945     0.314996     0.091207  Biso 1.000000     S
    S   1.0     0.906947     0.314997     0.091209  Biso 1.000000     S
    S   1.0     0.399431     0.646745     0.748794  Biso 1.000000     S
    S   1.0     0.899431     0.646746     0.748796  Biso 1.000000     S
    S   1.0     0.343633     0.910229     0.684010  Biso 1.000000     S
    S   1.0     0.843634     0.910229     0.684010  Biso 1.000000     S
    S   1.0     0.149795     0.749862     0.648078  Biso 1.000000     S
    S   1.0     0.649798     0.749875     0.648078  Biso 1.000000     S
    S   1.0     0.093053     0.685015     0.908764  Biso 1.000000     S
    S   1.0     0.593056     0.685019     0.908761  Biso 1.000000     S
    S   1.0     0.100570     0.353271     0.251173  Biso 1.000000     S
    S   1.0     0.600571     0.353275     0.251173  Biso 1.000000     S
    S   1.0     0.156368     0.089788     0.315964  Biso 1.000000     S
    S   1.0     0.656369     0.089791     0.315961  Biso 1.000000     S
   Zn   1.0     0.305513     0.242127     0.682039  Biso 1.000000    Zn
   Zn   1.0     0.805514     0.242127     0.682041  Biso 1.000000    Zn
   Zn   1.0     0.444010     0.317495     0.760717  Biso 1.000000    Zn
   Zn   1.0     0.944012     0.317495     0.760717  Biso 1.000000    Zn
   Zn   1.0     0.194489     0.757890     0.317935  Biso 1.000000    Zn
   Zn   1.0     0.694491     0.757893     0.317930  Biso 1.000000    Zn
   Zn   1.0     0.055991     0.682524     0.239254  Biso 1.000000    Zn
   Zn   1.0     0.555993     0.682528     0.239253  Biso 1.000000    Zn
