#======================================================================

# CRYSTAL DATA

#----------------------------------------------------------------------

data_VESTA_phase_1


_pd_phase_name                         MOF
_cell_length_a                         18.44800
_cell_length_b                         12.01200
_cell_length_c                         12.57600
_cell_angle_alpha                      79.49400
_cell_angle_beta                       74.76500
_cell_angle_gamma                      78.17500
_symmetry_space_group_name_H-M         "P 1"
_symmetry_Int_Tables_number            1

loop_
_symmetry_equiv_pos_as_xyz
   "x, y, z"

loop_
   _atom_site_label
   _atom_site_occupancy
   _atom_site_fract_x
   _atom_site_fract_y
   _atom_site_fract_z
   _atom_site_adp_type
   _atom_site_B_iso_or_equiv
   _atom_site_type_symbol
    H   1.0     0.039577     0.367531     0.260993  Biso 1.000000     H
    H   1.0     0.539582     0.367531     0.260995  Biso 1.000000     H
    H   1.0     0.465484     0.479613     0.243897  Biso 1.000000     H
    H   1.0     0.965484     0.479613     0.243902  Biso 1.000000     H
    H   1.0     0.021507     0.579507     0.048939  Biso 1.000000     H
    H   1.0     0.521518     0.579507     0.048936  Biso 1.000000     H
    H   1.0     0.224079     0.632881     0.111694  Biso 1.000000     H
    H   1.0     0.724089     0.632876     0.111699  Biso 1.000000     H
    H   1.0     0.403483     0.619369     0.294404  Biso 1.000000     H
    H   1.0     0.903493     0.619369     0.294404  Biso 1.000000     H
    H   1.0     0.362786     0.700958     0.403998  Biso 1.000000     H
    H   1.0     0.862795     0.700958     0.403998  Biso 1.000000     H
    H   1.0     0.433788     0.763700     0.120837  Biso 1.000000     H
    H   1.0     0.933801     0.763694     0.120834  Biso 1.000000     H
    H   1.0     0.031860     0.979637     0.251551  Biso 1.000000     H
    H   1.0     0.531872     0.979625     0.251546  Biso 1.000000     H
    H   1.0     0.062286     0.251907     0.372633  Biso 1.000000     H
    H   1.0     0.562298     0.251908     0.372632  Biso 1.000000     H
    H   1.0     0.090490     0.217699     0.498313  Biso 1.000000     H
    H   1.0     0.590501     0.217703     0.498314  Biso 1.000000     H
    H   1.0     0.171156     0.248668     0.203428  Biso 1.000000     H
    H   1.0     0.671168     0.248667     0.203430  Biso 1.000000     H
    H   1.0     0.336279     0.325346     0.343822  Biso 1.000000     H
    H   1.0     0.836292     0.325345     0.343821  Biso 1.000000     H
    H   1.0     0.169172     0.072963     0.013121  Biso 1.000000     H
    H   1.0     0.669186     0.072969     0.013113  Biso 1.000000     H
    H   1.0     0.460442     0.632435     0.739023  Biso 1.000000     H
    H   1.0     0.960447     0.632435     0.739024  Biso 1.000000     H
    H   1.0     0.034540     0.520353     0.756117  Biso 1.000000     H
    H   1.0     0.534540     0.520353     0.756121  Biso 1.000000     H
    H   1.0     0.478505     0.420457     0.951082  Biso 1.000000     H
    H   1.0     0.978517     0.420457     0.951079  Biso 1.000000     H
    H   1.0     0.275936     0.367086     0.888315  Biso 1.000000     H
    H   1.0     0.775946     0.367081     0.888320  Biso 1.000000     H
    H   1.0     0.096532     0.380597     0.705613  Biso 1.000000     H
    H   1.0     0.596543     0.380598     0.705612  Biso 1.000000     H
    H   1.0     0.137231     0.299009     0.596018  Biso 1.000000     H
    H   1.0     0.637240     0.299009     0.596018  Biso 1.000000     H
    H   1.0     0.066223     0.236272     0.879183  Biso 1.000000     H
    H   1.0     0.566237     0.236267     0.879180  Biso 1.000000     H
    H   1.0     0.468153     0.020341     0.748469  Biso 1.000000     H
    H   1.0     0.968165     0.020330     0.748464  Biso 1.000000     H
    H   1.0     0.437726     0.748058     0.627385  Biso 1.000000     H
    H   1.0     0.937738     0.748059     0.627384  Biso 1.000000     H
    H   1.0     0.409524     0.782263     0.501703  Biso 1.000000     H
    H   1.0     0.909535     0.782267     0.501704  Biso 1.000000     H
    H   1.0     0.328854     0.751297     0.796588  Biso 1.000000     H
    H   1.0     0.828867     0.751296     0.796590  Biso 1.000000     H
    H   1.0     0.163733     0.674618     0.656192  Biso 1.000000     H
    H   1.0     0.663745     0.674617     0.656192  Biso 1.000000     H
    H   1.0     0.330839     0.926997     0.986897  Biso 1.000000     H
    H   1.0     0.830852     0.927001     0.986890  Biso 1.000000     H
    C   1.0     0.508324     0.479631     0.390067  Biso 1.000000     C
    C   1.0     0.000000     0.479632     0.390067  Biso 1.000000     C
    C   1.0     0.463283     0.581540     0.427017  Biso 1.000000     C
    C   1.0     0.963288     0.581542     0.427017  Biso 1.000000     C
    C   1.0     0.044316     0.397389     0.463501  Biso 1.000000     C
    C   1.0     0.544326     0.397395     0.463498  Biso 1.000000     C
    C   1.0     0.518932     0.458032     0.271551  Biso 1.000000     C
    C   1.0     0.000000     0.458032     0.271552  Biso 1.000000     C
    C   1.0     0.068311     0.575399     0.088078  Biso 1.000000     C
    C   1.0     0.568321     0.575400     0.088079  Biso 1.000000     C
    C   1.0     0.170826     0.602331     0.123025  Biso 1.000000     C
    C   1.0     0.670835     0.602330     0.123027  Biso 1.000000     C
    C   1.0     0.417482     0.664408     0.352777  Biso 1.000000     C
    C   1.0     0.917491     0.664411     0.352777  Biso 1.000000     C
    C   1.0     0.455011     0.801155     0.176930  Biso 1.000000     C
    C   1.0     0.955018     0.801156     0.176928  Biso 1.000000     C
    C   1.0     0.005217     0.908965     0.245769  Biso 1.000000     C
    C   1.0     0.505225     0.908957     0.245767  Biso 1.000000     C
    C   1.0     0.089006     0.284263     0.426485  Biso 1.000000     C
    C   1.0     0.589016     0.284267     0.426486  Biso 1.000000     C
    C   1.0     0.200318     0.272378     0.258700  Biso 1.000000     C
    C   1.0     0.700329     0.272378     0.258702  Biso 1.000000     C
    C   1.0     0.282241     0.311977     0.333785  Biso 1.000000     C
    C   1.0     0.782253     0.311977     0.333785  Biso 1.000000     C
    C   1.0     0.193208     0.896270     0.971446  Biso 1.000000     C
    C   1.0     0.693219     0.896266     0.971447  Biso 1.000000     C
    C   1.0     0.214027     0.998976     0.998110  Biso 1.000000     C
    C   1.0     0.714034     0.998970     0.998120  Biso 1.000000     C
    C   1.0    -0.008303     0.520334     0.609951  Biso 1.000000     C
    C   1.0     0.491700     0.520335     0.609951  Biso 1.000000     C
    C   1.0     0.036737     0.418425     0.573000  Biso 1.000000     C
    C   1.0     0.536742     0.418426     0.573001  Biso 1.000000     C
    C   1.0     0.455699     0.602571     0.536519  Biso 1.000000     C
    C   1.0     0.955709     0.602577     0.536516  Biso 1.000000     C
    C   1.0    -0.018909     0.541934     0.728466  Biso 1.000000     C
    C   1.0     0.481092     0.541933     0.728467  Biso 1.000000     C
    C   1.0     0.431703     0.424564     0.911939  Biso 1.000000     C
    C   1.0     0.931713     0.424563     0.911939  Biso 1.000000     C
    C   1.0     0.329190     0.397633     0.876989  Biso 1.000000     C
    C   1.0     0.829199     0.397632     0.876990  Biso 1.000000     C
    C   1.0     0.082535     0.335555     0.647240  Biso 1.000000     C
    C   1.0     0.582543     0.335558     0.647239  Biso 1.000000     C
    C   1.0     0.045006     0.198811     0.823088  Biso 1.000000     C
    C   1.0     0.545015     0.198811     0.823086  Biso 1.000000     C
    C   1.0     0.494800     0.091009     0.754248  Biso 1.000000     C
    C   1.0     0.994808     0.091002     0.754246  Biso 1.000000     C
    C   1.0     0.411008     0.715699     0.573532  Biso 1.000000     C
    C   1.0     0.911018     0.715702     0.573532  Biso 1.000000     C
    C   1.0     0.299694     0.727586     0.741316  Biso 1.000000     C
    C   1.0     0.799706     0.727586     0.741318  Biso 1.000000     C
    C   1.0     0.217772     0.687987     0.666230  Biso 1.000000     C
    C   1.0     0.717784     0.687986     0.666231  Biso 1.000000     C
    C   1.0     0.306805     0.103693     0.028567  Biso 1.000000     C
    C   1.0     0.806815     0.103689     0.028570  Biso 1.000000     C
    C   1.0     0.285987     0.000989     0.001901  Biso 1.000000     C
    C   1.0     0.785994     0.000983     0.001914  Biso 1.000000     C
    N   1.0     0.129968     0.625707     0.042445  Biso 1.000000     N
    N   1.0     0.629978     0.625706     0.042444  Biso 1.000000     N
    N   1.0     0.072300     0.526128     0.191576  Biso 1.000000     N
    N   1.0     0.572309     0.526127     0.191577  Biso 1.000000     N
    N   1.0     0.137883     0.541264     0.215300  Biso 1.000000     N
    N   1.0     0.637891     0.541263     0.215302  Biso 1.000000     N
    N   1.0     0.487050     0.895911     0.150481  Biso 1.000000     N
    N   1.0     0.987056     0.895914     0.150480  Biso 1.000000     N
    N   1.0     0.454841     0.758985     0.283914  Biso 1.000000     N
    N   1.0     0.954849     0.758987     0.283913  Biso 1.000000     N
    N   1.0    -0.013636     0.827334     0.329582  Biso 1.000000     N
    N   1.0     0.486368     0.827329     0.329580  Biso 1.000000     N
    N   1.0     0.273614     0.284975     0.237033  Biso 1.000000     N
    N   1.0     0.773626     0.284972     0.237034  Biso 1.000000     N
    N   1.0     0.167464     0.291244     0.364040  Biso 1.000000     N
    N   1.0     0.667474     0.291249     0.364041  Biso 1.000000     N
    N   1.0     0.218834     0.316859     0.413604  Biso 1.000000     N
    N   1.0     0.718846     0.316861     0.413604  Biso 1.000000     N
    N   1.0     0.370046     0.374256     0.957571  Biso 1.000000     N
    N   1.0     0.870056     0.374255     0.957571  Biso 1.000000     N
    N   1.0     0.427716     0.473837     0.808440  Biso 1.000000     N
    N   1.0     0.927724     0.473837     0.808442  Biso 1.000000     N
    N   1.0     0.362134     0.458700     0.784714  Biso 1.000000     N
    N   1.0     0.862142     0.458701     0.784717  Biso 1.000000     N
    N   1.0     0.012968     0.104053     0.849536  Biso 1.000000     N
    N   1.0     0.512974     0.104056     0.849535  Biso 1.000000     N
    N   1.0     0.045178     0.240979     0.716103  Biso 1.000000     N
    N   1.0     0.545184     0.240982     0.716102  Biso 1.000000     N
    N   1.0     0.513658     0.172637     0.670435  Biso 1.000000     N
    N   1.0     0.000000     0.172632     0.670433  Biso 1.000000     N
    N   1.0     0.226397     0.714989     0.762983  Biso 1.000000     N
    N   1.0     0.726409     0.714986     0.762984  Biso 1.000000     N
    N   1.0     0.332550     0.708717     0.635976  Biso 1.000000     N
    N   1.0     0.832560     0.708720     0.635977  Biso 1.000000     N
    N   1.0     0.281179     0.683104     0.586412  Biso 1.000000     N
    N   1.0     0.781191     0.683106     0.586411  Biso 1.000000     N
    O   1.0     0.059767     0.736429     0.833333  Biso 1.000000     O
    O   1.0     0.559771     0.736428     0.833335  Biso 1.000000     O
    O   1.0     0.462636     0.879675     0.934971  Biso 1.000000     O
    O   1.0     0.962642     0.879673     0.934971  Biso 1.000000     O
    O   1.0     0.444229     0.679088     0.964553  Biso 1.000000     O
    O   1.0     0.944234     0.679088     0.964552  Biso 1.000000     O
    O   1.0     0.437076     0.800875     0.785096  Biso 1.000000     O
    O   1.0     0.937080     0.800877     0.785097  Biso 1.000000     O
    O   1.0     0.126745     0.905889     0.947943  Biso 1.000000     O
    O   1.0     0.626756     0.905892     0.947936  Biso 1.000000     O
    O   1.0     0.238408     0.802490     0.967811  Biso 1.000000     O
    O   1.0     0.738424     0.802494     0.967794  Biso 1.000000     O
    O   1.0     0.440247     0.263547     0.166680  Biso 1.000000     O
    O   1.0     0.940251     0.263546     0.166683  Biso 1.000000     O
    O   1.0     0.037371     0.120300     0.065047  Biso 1.000000     O
    O   1.0     0.537378     0.120296     0.065047  Biso 1.000000     O
    O   1.0     0.055788     0.320881     0.035468  Biso 1.000000     O
    O   1.0     0.555793     0.320878     0.035465  Biso 1.000000     O
    O   1.0     0.062938     0.199091     0.214921  Biso 1.000000     O
    O   1.0     0.562942     0.199093     0.214922  Biso 1.000000     O
    O   1.0     0.373269     0.094070     0.052075  Biso 1.000000     O
    O   1.0     0.873284     0.094075     0.052059  Biso 1.000000     O
    O   1.0     0.261604     0.197470     0.032212  Biso 1.000000     O
    O   1.0     0.761619     0.197471     0.032200  Biso 1.000000     O
    S   1.0     0.473942     0.773359     0.880469  Biso 1.000000     S
    S   1.0     0.973949     0.773358     0.880467  Biso 1.000000     S
    S   1.0     0.026069     0.226613     0.119551  Biso 1.000000     S
    S   1.0     0.526076     0.226611     0.119548  Biso 1.000000     S
   Zn   1.0     0.143697     0.743025     0.902865  Biso 1.000000    Zn
   Zn   1.0     0.643701     0.743026     0.902861  Biso 1.000000    Zn
   Zn   1.0     0.356316     0.256932     0.097156  Biso 1.000000    Zn
   Zn   1.0     0.856321     0.256934     0.097153  Biso 1.000000    Zn
   Zn   1.0     0.000002    -0.000003     0.000000  Biso 1.000000    Zn
   Zn   1.0     0.500006    -0.000002     0.000001  Biso 1.000000    Zn
