#======================================================================

# CRYSTAL DATA

#----------------------------------------------------------------------

data_VESTA_phase_1


_pd_phase_name                         MOF
_cell_length_a                         12.48500
_cell_length_b                         12.66300
_cell_length_c                         14.39700
_cell_angle_alpha                      97.32900
_cell_angle_beta                       90.00800
_cell_angle_gamma                      90.00800
_symmetry_space_group_name_H-M         "P 1"
_symmetry_Int_Tables_number            1

loop_
_symmetry_equiv_pos_as_xyz
   "x, y, z"

loop_
   _atom_site_label
   _atom_site_occupancy
   _atom_site_fract_x
   _atom_site_fract_y
   _atom_site_fract_z
   _atom_site_adp_type
   _atom_site_B_iso_or_equiv
   _atom_site_type_symbol
    H   1.0     0.698362     0.493426     0.153636  Biso 1.000000     H
    H   1.0     0.558247     0.635730     0.167244  Biso 1.000000     H
    H   1.0     0.614831     0.824538     0.162645  Biso 1.000000     H
    H   1.0     0.940254     0.711848     0.125835  Biso 1.000000     H
    H   1.0     0.785192     0.061199     0.152980  Biso 1.000000     H
    H   1.0     0.686756     0.983203     0.203628  Biso 1.000000     H
    H   1.0     0.696873     0.975454     0.080793  Biso 1.000000     H
    H   1.0     0.090092     0.844704     0.088260  Biso 1.000000     H
    H   1.0     0.208654     0.920222     0.117184  Biso 1.000000     H
    H   1.0     0.152329     0.916130     0.003978  Biso 1.000000     H
    H   1.0     0.277263     0.071524     0.106845  Biso 1.000000     H
    H   1.0     0.346197     0.256528     0.105659  Biso 1.000000     H
    H   1.0     0.215421     0.405929     0.108429  Biso 1.000000     H
    H   1.0     0.956829     0.201511     0.110237  Biso 1.000000     H
    H   1.0     0.831029     0.214312     0.317406  Biso 1.000000     H
    H   1.0     0.706918     0.233811     0.261917  Biso 1.000000     H
    H   1.0     0.720747     0.289540     0.447582  Biso 1.000000     H
    H   1.0     0.797573     0.396495     0.418232  Biso 1.000000     H
    H   1.0     0.198099     0.505263     0.346385  Biso 1.000000     H
    H   1.0     0.058020     0.362925     0.332970  Biso 1.000000     H
    H   1.0     0.114688     0.174118     0.337572  Biso 1.000000     H
    H   1.0     0.440308     0.286819     0.372716  Biso 1.000000     H
    H   1.0     0.285029     0.937522     0.346691  Biso 1.000000     H
    H   1.0     0.186589     0.015583     0.296109  Biso 1.000000     H
    H   1.0     0.196782     0.023196     0.418932  Biso 1.000000     H
    H   1.0     0.590199     0.154145     0.410708  Biso 1.000000     H
    H   1.0     0.708758     0.078411     0.382444  Biso 1.000000     H
    H   1.0     0.652199     0.083537     0.495643  Biso 1.000000     H
    H   1.0     0.777179     0.927409     0.393729  Biso 1.000000     H
    H   1.0     0.846040     0.742423     0.394974  Biso 1.000000     H
    H   1.0     0.715213     0.593049     0.392572  Biso 1.000000     H
    H   1.0     0.456742     0.797238     0.389041  Biso 1.000000     H
    H   1.0     0.331291     0.785384     0.182158  Biso 1.000000     H
    H   1.0     0.207063     0.765794     0.237370  Biso 1.000000     H
    H   1.0     0.220621     0.709820     0.052006  Biso 1.000000     H
    H   1.0     0.298731     0.603542     0.081184  Biso 1.000000     H
    H   1.0     0.301567     0.506613     0.846493  Biso 1.000000     H
    H   1.0     0.441705     0.364333     0.832719  Biso 1.000000     H
    H   1.0     0.385182     0.175503     0.837344  Biso 1.000000     H
    H   1.0     0.059713     0.288067     0.874027  Biso 1.000000     H
    H   1.0     0.214815     0.938825     0.847019  Biso 1.000000     H
    H   1.0     0.313276     0.016856     0.796445  Biso 1.000000     H
    H   1.0     0.303090     0.024534     0.919268  Biso 1.000000     H
    H   1.0     0.909745     0.155376     0.911605  Biso 1.000000     H
    H   1.0     0.791260     0.079803     0.882540  Biso 1.000000     H
    H   1.0     0.847347     0.084000     0.995836  Biso 1.000000     H
    H   1.0     0.722720     0.928581     0.893336  Biso 1.000000     H
    H   1.0     0.653781     0.743560     0.894410  Biso 1.000000     H
    H   1.0     0.784566     0.594188     0.891867  Biso 1.000000     H
    H   1.0     0.043137     0.798509     0.889415  Biso 1.000000     H
    H   1.0     0.168976     0.785655     0.682564  Biso 1.000000     H
    H   1.0     0.293065     0.766186     0.738096  Biso 1.000000     H
    H   1.0     0.279255     0.710396     0.552418  Biso 1.000000     H
    H   1.0     0.202440     0.603443     0.581805  Biso 1.000000     H
    H   1.0     0.801895     0.494727     0.653675  Biso 1.000000     H
    H   1.0     0.941990     0.637040     0.666752  Biso 1.000000     H
    H   1.0     0.885259     0.825863     0.662415  Biso 1.000000     H
    H   1.0     0.559666     0.713118     0.627222  Biso 1.000000     H
    H   1.0     0.714894     0.062428     0.653102  Biso 1.000000     H
    H   1.0     0.813439     0.984463     0.703650  Biso 1.000000     H
    H   1.0     0.802905     0.976484     0.580827  Biso 1.000000     H
    H   1.0     0.409907     0.845805     0.589084  Biso 1.000000     H
    H   1.0     0.291238     0.921425     0.617151  Biso 1.000000     H
    H   1.0     0.348279     0.916712     0.504161  Biso 1.000000     H
    H   1.0     0.222809     0.072597     0.606384  Biso 1.000000     H
    H   1.0     0.154000     0.257577     0.604965  Biso 1.000000     H
    H   1.0     0.284863     0.406931     0.607465  Biso 1.000000     H
    H   1.0     0.543281     0.202634     0.610713  Biso 1.000000     H
    H   1.0     0.668608     0.214715     0.817818  Biso 1.000000     H
    H   1.0     0.792860     0.234279     0.762629  Biso 1.000000     H
    H   1.0     0.779285     0.290202     0.947976  Biso 1.000000     H
    H   1.0     0.701214     0.396532     0.918855  Biso 1.000000     H
    C   1.0     0.719447     0.576287     0.149591  Biso 1.000000     C
    C   1.0     0.642108     0.656222     0.157496  Biso 1.000000     C
    C   1.0     0.674506     0.761236     0.155471  Biso 1.000000     C
    C   1.0     0.783676     0.785022     0.146147  Biso 1.000000     C
    C   1.0     0.855282     0.698512     0.136269  Biso 1.000000     C
    C   1.0     0.823395     0.894924     0.144873  Biso 1.000000     C
    C   1.0     0.744187     0.984231     0.145848  Biso 1.000000     C
    C   1.0     0.064545     0.012772     0.111331  Biso 1.000000     C
    C   1.0     0.132581     0.917844     0.078564  Biso 1.000000     C
    C   1.0     0.110394     0.120159     0.109867  Biso 1.000000     C
    C   1.0     0.221422     0.137616     0.106810  Biso 1.000000     C
    C   1.0     0.260498     0.240480     0.106127  Biso 1.000000     C
    C   1.0     0.188139     0.324173     0.107440  Biso 1.000000     C
    C   1.0     0.043677     0.209673     0.109525  Biso 1.000000     C
    C   1.0     0.832987     0.341226     0.235652  Biso 1.000000     C
    C   1.0     0.773471     0.275320     0.300700  Biso 1.000000     C
    C   1.0     0.734618     0.339355     0.391699  Biso 1.000000     C
    C   1.0     0.633988     0.403401     0.379594  Biso 1.000000     C
    C   1.0     0.219231     0.422403     0.350303  Biso 1.000000     C
    C   1.0     0.141906     0.342436     0.342548  Biso 1.000000     C
    C   1.0     0.174354     0.237447     0.344541  Biso 1.000000     C
    C   1.0     0.283585     0.213686     0.353483  Biso 1.000000     C
    C   1.0     0.355228     0.300189     0.362930  Biso 1.000000     C
    C   1.0     0.323285     0.103818     0.354931  Biso 1.000000     C
    C   1.0     0.244057     0.014497     0.353869  Biso 1.000000     C
    C   1.0     0.564476     0.986097     0.388676  Biso 1.000000     C
    C   1.0     0.632613     0.081143     0.420956  Biso 1.000000     C
    C   1.0     0.610299     0.878721     0.390233  Biso 1.000000     C
    C   1.0     0.721310     0.861297     0.393565  Biso 1.000000     C
    C   1.0     0.760346     0.758439     0.394346  Biso 1.000000     C
    C   1.0     0.687950     0.674746     0.393040  Biso 1.000000     C
    C   1.0     0.543564     0.789137     0.390219  Biso 1.000000     C
    C   1.0     0.333086     0.658537     0.264072  Biso 1.000000     C
    C   1.0     0.273766     0.724309     0.198807  Biso 1.000000     C
    C   1.0     0.235268     0.660043     0.107763  Biso 1.000000     C
    C   1.0     0.135450     0.594949     0.120200  Biso 1.000000     C
    C   1.0     0.280492     0.423730     0.850434  Biso 1.000000     C
    C   1.0     0.357855     0.343817     0.842489  Biso 1.000000     C
    C   1.0     0.325495     0.238797     0.844540  Biso 1.000000     C
    C   1.0     0.216326     0.214978     0.853826  Biso 1.000000     C
    C   1.0     0.144688     0.301459     0.863669  Biso 1.000000     C
    C   1.0     0.176603     0.105104     0.855191  Biso 1.000000     C
    C   1.0     0.255809     0.015800     0.854195  Biso 1.000000     C
    C   1.0     0.935394     0.987306     0.888677  Biso 1.000000     C
    C   1.0     0.867260     0.082226     0.921275  Biso 1.000000     C
    C   1.0     0.889572     0.879911     0.890117  Biso 1.000000     C
    C   1.0     0.778552     0.862471     0.893283  Biso 1.000000     C
    C   1.0     0.739481     0.759602     0.893928  Biso 1.000000     C
    C   1.0     0.811844     0.675919     0.892667  Biso 1.000000     C
    C   1.0     0.956291     0.790369     0.890302  Biso 1.000000     C
    C   1.0     0.166978     0.658757     0.764341  Biso 1.000000     C
    C   1.0     0.226528     0.724657     0.699305  Biso 1.000000     C
    C   1.0     0.265390     0.660601     0.608314  Biso 1.000000     C
    C   1.0     0.366017     0.596563     0.620431  Biso 1.000000     C
    C   1.0     0.780758     0.577567     0.649664  Biso 1.000000     C
    C   1.0     0.858079     0.657537     0.657319  Biso 1.000000     C
    C   1.0     0.825588     0.762539     0.655481  Biso 1.000000     C
    C   1.0     0.716342     0.786299     0.646616  Biso 1.000000     C
    C   1.0     0.644738     0.699771     0.637071  Biso 1.000000     C
    C   1.0     0.676571     0.896177     0.645361  Biso 1.000000     C
    C   1.0     0.755812     0.985427     0.645992  Biso 1.000000     C
    C   1.0     0.435510     0.013882     0.611619  Biso 1.000000     C
    C   1.0     0.367544     0.918851     0.578889  Biso 1.000000     C
    C   1.0     0.389706     0.121237     0.609862  Biso 1.000000     C
    C   1.0     0.278699     0.138689     0.606517  Biso 1.000000     C
    C   1.0     0.239689     0.241538     0.605628  Biso 1.000000     C
    C   1.0     0.312102     0.325216     0.606925  Biso 1.000000     C
    C   1.0     0.456460     0.210773     0.609683  Biso 1.000000     C
    C   1.0     0.666880     0.341522     0.735893  Biso 1.000000     C
    C   1.0     0.726164     0.275773     0.801191  Biso 1.000000     C
    C   1.0     0.764655     0.340021     0.892246  Biso 1.000000     C
    C   1.0     0.864503     0.405085     0.879833  Biso 1.000000     C
    N   1.0     0.824438     0.597422     0.137982  Biso 1.000000     N
    N   1.0     0.927398     0.905621     0.141581  Biso 1.000000     N
    N   1.0     0.965324     0.008118     0.140343  Biso 1.000000     N
    N   1.0     0.081223     0.308762     0.108279  Biso 1.000000     N
    N   1.0     0.324289     0.401285     0.361481  Biso 1.000000     N
    N   1.0     0.427277     0.093162     0.358456  Biso 1.000000     N
    N   1.0     0.465184     0.990703     0.359847  Biso 1.000000     N
    N   1.0     0.581047     0.690074     0.391722  Biso 1.000000     N
    N   1.0     0.175506     0.402566     0.862033  Biso 1.000000     N
    N   1.0     0.072595     0.094440     0.858539  Biso 1.000000     N
    N   1.0     0.034673     0.991969     0.859815  Biso 1.000000     N
    N   1.0     0.918762     0.691301     0.891714  Biso 1.000000     N
    N   1.0     0.675696     0.598683     0.638533  Biso 1.000000     N
    N   1.0     0.572561     0.906868     0.642282  Biso 1.000000     N
    N   1.0     0.534633     0.009321     0.640865  Biso 1.000000     N
    N   1.0     0.418996     0.309846     0.608182  Biso 1.000000     N
    O   1.0     0.897961     0.412549     0.272294  Biso 1.000000     O
    O   1.0     0.819848     0.319675     0.147401  Biso 1.000000     O
    O   1.0     0.606930     0.426266     0.300252  Biso 1.000000     O
    O   1.0     0.578239     0.435907     0.453452  Biso 1.000000     O
    O   1.0     0.398180     0.587269     0.227589  Biso 1.000000     O
    O   1.0     0.319699     0.680123     0.352273  Biso 1.000000     O
    O   1.0     0.110818     0.569498     0.199225  Biso 1.000000     O
    O   1.0     0.077865     0.564378     0.046950  Biso 1.000000     O
    O   1.0     0.102022     0.587422     0.727704  Biso 1.000000     O
    O   1.0     0.180125     0.680314     0.852596  Biso 1.000000     O
    O   1.0     0.393058     0.573669     0.699763  Biso 1.000000     O
    O   1.0     0.421746     0.564080     0.546545  Biso 1.000000     O
    O   1.0     0.601766     0.412797     0.772319  Biso 1.000000     O
    O   1.0     0.680267     0.319865     0.647696  Biso 1.000000     O
    O   1.0     0.889185     0.430499     0.800807  Biso 1.000000     O
    O   1.0     0.922090     0.435616     0.953091  Biso 1.000000     O
   Cd   1.0     0.953961     0.456823     0.121342  Biso 1.000000    Cd
   Cd   1.0     0.453322     0.542142     0.378341  Biso 1.000000    Cd
   Cd   1.0     0.046003     0.543188     0.878688  Biso 1.000000    Cd
   Cd   1.0     0.546664     0.457821     0.621576  Biso 1.000000    Cd
