#======================================================================

# CRYSTAL DATA

#----------------------------------------------------------------------

data_VESTA_phase_1


_pd_phase_name                         MOF
_cell_length_a                         23.75300
_cell_length_b                         14.99600
_cell_length_c                         17.40900
_cell_angle_alpha                      89.92800
_cell_angle_beta                       90.00700
_cell_angle_gamma                      110.26900
_symmetry_space_group_name_H-M         "P 1"
_symmetry_Int_Tables_number            1

loop_
_symmetry_equiv_pos_as_xyz
   "x, y, z"

loop_
   _atom_site_label
   _atom_site_occupancy
   _atom_site_fract_x
   _atom_site_fract_y
   _atom_site_fract_z
   _atom_site_adp_type
   _atom_site_B_iso_or_equiv
   _atom_site_type_symbol
    H   1.0     0.477664     0.969674     0.244517  Biso 1.000000     H
    H   1.0     0.978334     0.970177     0.244024  Biso 1.000000     H
    H   1.0     0.396113     0.234535     0.258023  Biso 1.000000     H
    H   1.0     0.895718     0.234090     0.258121  Biso 1.000000     H
    H   1.0     0.506750     0.567946     0.410688  Biso 1.000000     H
    H   1.0     0.000000     0.566921     0.410661  Biso 1.000000     H
    H   1.0     0.413348     0.583569     0.444147  Biso 1.000000     H
    H   1.0     0.913057     0.583094     0.444142  Biso 1.000000     H
    H   1.0     0.387420     0.551978     0.348083  Biso 1.000000     H
    H   1.0     0.887086     0.551742     0.348052  Biso 1.000000     H
    H   1.0     0.073137     0.115902     0.044561  Biso 1.000000     H
    H   1.0     0.573466     0.115932     0.044185  Biso 1.000000     H
    H   1.0     0.452758     0.499842     0.259133  Biso 1.000000     H
    H   1.0     0.952253     0.499363     0.259009  Biso 1.000000     H
    H   1.0     0.025608     0.509648     0.290549  Biso 1.000000     H
    H   1.0     0.526160     0.510510     0.290722  Biso 1.000000     H
    H   1.0     0.420963     0.727042     0.363343  Biso 1.000000     H
    H   1.0     0.920932     0.726758     0.363542  Biso 1.000000     H
    H   1.0     0.493392     0.729762     0.395351  Biso 1.000000     H
    H   1.0     0.993301     0.729080     0.395482  Biso 1.000000     H
    H   1.0     0.057661     0.681410     0.297743  Biso 1.000000     H
    H   1.0     0.557912     0.682258     0.297753  Biso 1.000000     H
    H   1.0     0.027443     0.646886     0.204141  Biso 1.000000     H
    H   1.0     0.527776     0.647525     0.204149  Biso 1.000000     H
    H   1.0     0.496967     0.768123     0.257288  Biso 1.000000     H
    H   1.0     0.996926     0.767727     0.257447  Biso 1.000000     H
    H   1.0     0.436434     0.675465     0.243143  Biso 1.000000     H
    H   1.0     0.936293     0.675331     0.243217  Biso 1.000000     H
    H   1.0     0.271502     0.529199     0.744256  Biso 1.000000     H
    H   1.0     0.771977     0.529658     0.744099  Biso 1.000000     H
    H   1.0     0.354116     0.265489     0.757997  Biso 1.000000     H
    H   1.0     0.854332     0.265352     0.758503  Biso 1.000000     H
    H   1.0     0.243225     0.932225     0.910460  Biso 1.000000     H
    H   1.0     0.742966     0.931362     0.910524  Biso 1.000000     H
    H   1.0     0.336481     0.916053     0.944088  Biso 1.000000     H
    H   1.0     0.836367     0.915571     0.943788  Biso 1.000000     H
    H   1.0     0.362549     0.947797     0.848044  Biso 1.000000     H
    H   1.0     0.862269     0.947520     0.847712  Biso 1.000000     H
    H   1.0     0.176700     0.383764     0.544149  Biso 1.000000     H
    H   1.0     0.677123     0.384508     0.544807  Biso 1.000000     H
    H   1.0     0.297574     0.000000     0.758998  Biso 1.000000     H
    H   1.0     0.796919     0.000000     0.758943  Biso 1.000000     H
    H   1.0     0.224182     0.990242     0.790402  Biso 1.000000     H
    H   1.0     0.723524     0.989323     0.790668  Biso 1.000000     H
    H   1.0     0.328707     0.772701     0.863371  Biso 1.000000     H
    H   1.0     0.828703     0.772414     0.862848  Biso 1.000000     H
    H   1.0     0.256281     0.770198     0.895218  Biso 1.000000     H
    H   1.0     0.756272     0.769563     0.894958  Biso 1.000000     H
    H   1.0     0.192116     0.818475     0.797513  Biso 1.000000     H
    H   1.0     0.691791     0.817579     0.797554  Biso 1.000000     H
    H   1.0     0.222413     0.853343     0.703923  Biso 1.000000     H
    H   1.0     0.721893     0.852697     0.703927  Biso 1.000000     H
    H   1.0     0.252934     0.732303     0.757189  Biso 1.000000     H
    H   1.0     0.752732     0.731811     0.756852  Biso 1.000000     H
    H   1.0     0.313551     0.824788     0.743111  Biso 1.000000     H
    H   1.0     0.813262     0.824639     0.742791  Biso 1.000000     H
    H   1.0     0.021672     0.029787     0.756000  Biso 1.000000     H
    H   1.0     0.522362     0.030302     0.755535  Biso 1.000000     H
    H   1.0     0.104283     0.765819     0.741871  Biso 1.000000     H
    H   1.0     0.603904     0.765376     0.741982  Biso 1.000000     H
    H   1.0    -0.006289     0.432881     0.589384  Biso 1.000000     H
    H   1.0     0.493227     0.431915     0.589371  Biso 1.000000     H
    H   1.0     0.086931     0.416798     0.555898  Biso 1.000000     H
    H   1.0     0.586639     0.416361     0.555897  Biso 1.000000     H
    H   1.0     0.112898     0.448174     0.651987  Biso 1.000000     H
    H   1.0     0.612565     0.447945     0.651964  Biso 1.000000     H
    H   1.0     0.426568     0.884054     0.955811  Biso 1.000000     H
    H   1.0     0.926869     0.884061     0.955463  Biso 1.000000     H
    H   1.0     0.047724     0.500534     0.741015  Biso 1.000000     H
    H   1.0     0.547216     0.500049     0.740919  Biso 1.000000     H
    H   1.0     0.473812     0.489370     0.709330  Biso 1.000000     H
    H   1.0     0.974360     0.490212     0.709479  Biso 1.000000     H
    H   1.0     0.079084     0.273149     0.636516  Biso 1.000000     H
    H   1.0     0.579039     0.272879     0.636692  Biso 1.000000     H
    H   1.0     0.006711     0.270798     0.604566  Biso 1.000000     H
    H   1.0     0.506608     0.270150     0.604682  Biso 1.000000     H
    H   1.0     0.442078     0.317620     0.702286  Biso 1.000000     H
    H   1.0     0.942332     0.318452     0.702316  Biso 1.000000     H
    H   1.0     0.472208     0.352341     0.795895  Biso 1.000000     H
    H   1.0     0.972557     0.352996     0.795912  Biso 1.000000     H
    H   1.0     0.003085     0.232178     0.742605  Biso 1.000000     H
    H   1.0     0.503033     0.231777     0.742749  Biso 1.000000     H
    H   1.0     0.063715     0.324585     0.756828  Biso 1.000000     H
    H   1.0     0.563562     0.324449     0.756893  Biso 1.000000     H
    H   1.0     0.228016     0.470346     0.255923  Biso 1.000000     H
    H   1.0     0.728504     0.470796     0.255762  Biso 1.000000     H
    H   1.0     0.145690     0.734677     0.241530  Biso 1.000000     H
    H   1.0     0.645899     0.734515     0.242021  Biso 1.000000     H
    H   1.0     0.257067     0.068644     0.089501  Biso 1.000000     H
    H   1.0     0.756781     0.067751     0.089555  Biso 1.000000     H
    H   1.0     0.163665     0.084422     0.056225  Biso 1.000000     H
    H   1.0     0.663526     0.083925     0.055923  Biso 1.000000     H
    H   1.0     0.137755     0.052465     0.152297  Biso 1.000000     H
    H   1.0     0.637459     0.052191     0.151968  Biso 1.000000     H
    H   1.0     0.322892     0.615558     0.455213  Biso 1.000000     H
    H   1.0     0.823317     0.616316     0.455868  Biso 1.000000     H
    H   1.0     0.203113    -0.000160     0.241081  Biso 1.000000     H
    H   1.0     0.702430    -0.000673     0.241018  Biso 1.000000     H
    H   1.0     0.276513     0.010708     0.209359  Biso 1.000000     H
    H   1.0     0.775822     0.009743     0.209619  Biso 1.000000     H
    H   1.0     0.171302     0.227568     0.137168  Biso 1.000000     H
    H   1.0     0.671304     0.227285     0.136628  Biso 1.000000     H
    H   1.0     0.243741     0.230447     0.105068  Biso 1.000000     H
    H   1.0     0.743730     0.229782     0.104787  Biso 1.000000     H
    H   1.0     0.308225     0.182452     0.202480  Biso 1.000000     H
    H   1.0     0.807889     0.181512     0.202497  Biso 1.000000     H
    H   1.0     0.278117     0.147321     0.296102  Biso 1.000000     H
    H   1.0     0.777593     0.146652     0.296088  Biso 1.000000     H
    H   1.0     0.247265     0.268190     0.243172  Biso 1.000000     H
    H   1.0     0.747070     0.267688     0.242818  Biso 1.000000     H
    H   1.0     0.186742     0.175347     0.257226  Biso 1.000000     H
    H   1.0     0.686457     0.175205     0.256895  Biso 1.000000     H
    C   1.0     0.031133     0.242486     0.293725  Biso 1.000000     C
    C   1.0     0.531480     0.242860     0.293677  Biso 1.000000     C
    C   1.0     0.440972     0.247978     0.279742  Biso 1.000000     C
    C   1.0     0.940577     0.247510     0.279832  Biso 1.000000     C
    C   1.0     0.056378     0.367132     0.411205  Biso 1.000000     C
    C   1.0     0.556841     0.367660     0.410980  Biso 1.000000     C
    C   1.0     0.022577     0.306801     0.347101  Biso 1.000000     C
    C   1.0     0.522964     0.307308     0.346962  Biso 1.000000     C
    C   1.0     0.443403     0.141546     0.862659  Biso 1.000000     C
    C   1.0     0.943183     0.141494     0.862779  Biso 1.000000     C
    C   1.0     0.463856     0.130452     0.941455  Biso 1.000000     C
    C   1.0     0.963563     0.130232     0.941590  Biso 1.000000     C
    C   1.0     0.427020     0.587801     0.383745  Biso 1.000000     C
    C   1.0     0.926717     0.587298     0.383738  Biso 1.000000     C
    C   1.0     0.079574     0.205012     0.272627  Biso 1.000000     C
    C   1.0     0.579911     0.205383     0.272635  Biso 1.000000     C
    C   1.0     0.031540     0.119949     0.022356  Biso 1.000000     C
    C   1.0     0.531863     0.120055     0.022082  Biso 1.000000     C
    C   1.0     0.491076     0.542402     0.294419  Biso 1.000000     C
    C   1.0     0.990599     0.541710     0.294349  Biso 1.000000     C
    C   1.0     0.454267     0.691653     0.359749  Biso 1.000000     C
    C   1.0     0.954140     0.691195     0.359861  Biso 1.000000     C
    C   1.0     0.016540     0.643548     0.265565  Biso 1.000000     C
    C   1.0     0.516835     0.644196     0.265559  Biso 1.000000     C
    C   1.0     0.383824     0.121110     0.054864  Biso 1.000000     C
    C   1.0     0.883317     0.120435     0.054844  Biso 1.000000     C
    C   1.0     0.440143     0.121960     0.016310  Biso 1.000000     C
    C   1.0     0.939751     0.121620     0.016398  Biso 1.000000     C
    C   1.0     0.218752     0.257140     0.793725  Biso 1.000000     C
    C   1.0     0.718983     0.257452     0.793842  Biso 1.000000     C
    C   1.0     0.309263     0.252024     0.779761  Biso 1.000000     C
    C   1.0     0.809435     0.251981     0.780077  Biso 1.000000     C
    C   1.0     0.193452     0.132371     0.911292  Biso 1.000000     C
    C   1.0     0.693314     0.132160     0.911105  Biso 1.000000     C
    C   1.0     0.227299     0.192694     0.847127  Biso 1.000000     C
    C   1.0     0.727291     0.192639     0.847091  Biso 1.000000     C
    C   1.0     0.306793     0.358339     0.362606  Biso 1.000000     C
    C   1.0     0.806570     0.357931     0.362963  Biso 1.000000     C
    C   1.0     0.286327     0.369488     0.441354  Biso 1.000000     C
    C   1.0     0.786474     0.369548     0.441805  Biso 1.000000     C
    C   1.0     0.322882     0.912035     0.883675  Biso 1.000000     C
    C   1.0     0.822676     0.911563     0.883410  Biso 1.000000     C
    C   1.0     0.170328     0.294670     0.772642  Biso 1.000000     C
    C   1.0     0.670663     0.295203     0.772656  Biso 1.000000     C
    C   1.0     0.218322     0.379757     0.522024  Biso 1.000000     C
    C   1.0     0.718666     0.380285     0.522593  Biso 1.000000     C
    C   1.0     0.259157     0.958128     0.794223  Biso 1.000000     C
    C   1.0     0.758618     0.957429     0.794259  Biso 1.000000     C
    C   1.0     0.295504     0.808281     0.859692  Biso 1.000000     C
    C   1.0     0.795406     0.807831     0.859352  Biso 1.000000     C
    C   1.0     0.233264     0.856439     0.765349  Biso 1.000000     C
    C   1.0     0.732858     0.855766     0.765317  Biso 1.000000     C
    C   1.0     0.366444     0.378959     0.554723  Biso 1.000000     C
    C   1.0     0.866780     0.379388     0.555095  Biso 1.000000     C
    C   1.0     0.310061     0.377952     0.516207  Biso 1.000000     C
    C   1.0     0.810342     0.378192     0.516618  Biso 1.000000     C
    C   1.0     0.468551     0.757129     0.706340  Biso 1.000000     C
    C   1.0     0.968874     0.757459     0.706281  Biso 1.000000     C
    C   1.0     0.059422     0.752401     0.720168  Biso 1.000000     C
    C   1.0     0.559046     0.751955     0.720269  Biso 1.000000     C
    C   1.0     0.443150     0.632289     0.589062  Biso 1.000000     C
    C   1.0     0.943590     0.632753     0.588845  Biso 1.000000     C
    C   1.0     0.477042     0.692646     0.653067  Biso 1.000000     C
    C   1.0     0.977413     0.693109     0.652922  Biso 1.000000     C
    C   1.0     0.056824     0.858476     0.137249  Biso 1.000000     C
    C   1.0     0.556610     0.858414     0.137356  Biso 1.000000     C
    C   1.0     0.036445     0.869741     0.058437  Biso 1.000000     C
    C   1.0     0.536166     0.869517     0.058556  Biso 1.000000     C
    C   1.0     0.073273     0.412585     0.616303  Biso 1.000000     C
    C   1.0     0.572969     0.412112     0.616301  Biso 1.000000     C
    C   1.0     0.420131     0.794634     0.727386  Biso 1.000000     C
    C   1.0     0.920439     0.794943     0.727390  Biso 1.000000     C
    C   1.0     0.468169     0.879928     0.977918  Biso 1.000000     C
    C   1.0     0.968467     0.880017     0.977668  Biso 1.000000     C
    C   1.0     0.009375     0.458159     0.705691  Biso 1.000000     C
    C   1.0     0.508899     0.457483     0.705635  Biso 1.000000     C
    C   1.0     0.045868     0.308696     0.640188  Biso 1.000000     C
    C   1.0     0.545731     0.308259     0.640288  Biso 1.000000     C
    C   1.0     0.483150     0.355687     0.734485  Biso 1.000000     C
    C   1.0     0.983454     0.356330     0.734487  Biso 1.000000     C
    C   1.0     0.116690     0.879534     0.945183  Biso 1.000000     C
    C   1.0     0.616204     0.878865     0.945151  Biso 1.000000     C
    C   1.0     0.060257     0.878352     0.983629  Biso 1.000000     C
    C   1.0     0.559885     0.878014     0.983702  Biso 1.000000     C
    C   1.0     0.281036     0.742555     0.206191  Biso 1.000000     C
    C   1.0     0.781263     0.742860     0.206297  Biso 1.000000     C
    C   1.0     0.190587     0.748042     0.219958  Biso 1.000000     C
    C   1.0     0.690752     0.747979     0.220259  Biso 1.000000     C
    C   1.0     0.306710     0.867845     0.088926  Biso 1.000000     C
    C   1.0     0.806559     0.867614     0.088716  Biso 1.000000     C
    C   1.0     0.272732     0.807375     0.152945  Biso 1.000000     C
    C   1.0     0.772715     0.807301     0.152889  Biso 1.000000     C
    C   1.0     0.193411     0.642012     0.637062  Biso 1.000000     C
    C   1.0     0.693189     0.641624     0.637405  Biso 1.000000     C
    C   1.0     0.213517     0.630416     0.558221  Biso 1.000000     C
    C   1.0     0.713650     0.630446     0.558659  Biso 1.000000     C
    C   1.0     0.177349     0.088433     0.116605  Biso 1.000000     C
    C   1.0     0.677126     0.087948     0.116336  Biso 1.000000     C
    C   1.0     0.329352     0.704792     0.227369  Biso 1.000000     C
    C   1.0     0.829683     0.705320     0.227382  Biso 1.000000     C
    C   1.0     0.281342     0.619749     0.477429  Biso 1.000000     C
    C   1.0     0.781682     0.620274     0.477991  Biso 1.000000     C
    C   1.0     0.241412     0.042586     0.205767  Biso 1.000000     C
    C   1.0     0.740848     0.041859     0.205792  Biso 1.000000     C
    C   1.0     0.204607     0.192165     0.140667  Biso 1.000000     C
    C   1.0     0.704506     0.191704     0.140313  Biso 1.000000     C
    C   1.0     0.267158     0.144249     0.234710  Biso 1.000000     C
    C   1.0     0.766742     0.143550     0.234662  Biso 1.000000     C
    C   1.0     0.133191     0.620482     0.444943  Biso 1.000000     C
    C   1.0     0.633502     0.620798     0.445275  Biso 1.000000     C
    C   1.0     0.189648     0.621757     0.483409  Biso 1.000000     C
    C   1.0     0.689912     0.621948     0.483805  Biso 1.000000     C
    N   1.0     0.478631     0.206408     0.252399  Biso 1.000000     N
    N   1.0     0.978271     0.206078     0.252415  Biso 1.000000     N
    N   1.0     0.021271     0.129101     0.947597  Biso 1.000000     N
    N   1.0     0.521528     0.129210     0.947350  Biso 1.000000     N
    N   1.0     0.465709     0.308775     0.336873  Biso 1.000000     N
    N   1.0     0.965283     0.308169     0.337032  Biso 1.000000     N
    N   1.0     0.470147     0.536750     0.375119  Biso 1.000000     N
    N   1.0     0.969657     0.535917     0.375048  Biso 1.000000     N
    N   1.0     0.474724     0.697530     0.277959  Biso 1.000000     N
    N   1.0     0.974578     0.697162     0.278050  Biso 1.000000     N
    N   1.0     0.484360     0.115759     0.065378  Biso 1.000000     N
    N   1.0     0.983948     0.115530     0.065540  Biso 1.000000     N
    N   1.0     0.271583     0.293552     0.752341  Biso 1.000000     N
    N   1.0     0.771926     0.293849     0.752663  Biso 1.000000     N
    N   1.0     0.228614     0.370580     0.447277  Biso 1.000000     N
    N   1.0     0.728841     0.370910     0.447848  Biso 1.000000     N
    N   1.0     0.284547     0.191230     0.837020  Biso 1.000000     N
    N   1.0     0.784502     0.190980     0.837111  Biso 1.000000     N
    N   1.0     0.279923     0.963402     0.874972  Biso 1.000000     N
    N   1.0     0.779568     0.962695     0.874926  Biso 1.000000     N
    N   1.0     0.275198     0.802771     0.777854  Biso 1.000000     N
    N   1.0     0.774959     0.802357     0.777587  Biso 1.000000     N
    N   1.0     0.265869     0.384171     0.565282  Biso 1.000000     N
    N   1.0     0.766256     0.384623     0.565741  Biso 1.000000     N
    N   1.0     0.021743     0.793871     0.747577  Biso 1.000000     N
    N   1.0     0.521407     0.793570     0.747606  Biso 1.000000     N
    N   1.0     0.478497     0.870767     0.052653  Biso 1.000000     N
    N   1.0     0.978735     0.870868     0.052428  Biso 1.000000     N
    N   1.0     0.034701     0.691712     0.662988  Biso 1.000000     N
    N   1.0     0.534291     0.691146     0.663151  Biso 1.000000     N
    N   1.0     0.030305     0.463915     0.624990  Biso 1.000000     N
    N   1.0     0.529827     0.463134     0.624935  Biso 1.000000     N
    N   1.0     0.025428     0.302743     0.721997  Biso 1.000000     N
    N   1.0     0.525272     0.302375     0.722076  Biso 1.000000     N
    N   1.0     0.016059     0.884435     0.934484  Biso 1.000000     N
    N   1.0     0.515674     0.884221     0.934629  Biso 1.000000     N
    N   1.0     0.228092     0.706163     0.247370  Biso 1.000000     N
    N   1.0     0.728432     0.706453     0.247681  Biso 1.000000     N
    N   1.0     0.271163     0.629112     0.552176  Biso 1.000000     N
    N   1.0     0.771380     0.629434     0.552738  Biso 1.000000     N
    N   1.0     0.215522     0.809039     0.162923  Biso 1.000000     N
    N   1.0     0.715468     0.808765     0.162996  Biso 1.000000     N
    N   1.0     0.220464     0.037312     0.125098  Biso 1.000000     N
    N   1.0     0.720083     0.036577     0.125042  Biso 1.000000     N
    N   1.0     0.225047     0.197641     0.222434  Biso 1.000000     N
    N   1.0     0.724809     0.197220     0.222152  Biso 1.000000     N
    N   1.0     0.233745     0.615373     0.434283  Biso 1.000000     N
    N   1.0     0.734126     0.615801     0.434733  Biso 1.000000     N
    O   1.0     0.442498     0.970874     0.216260  Biso 1.000000     O
    O   1.0     0.942810     0.970789     0.216292  Biso 1.000000     O
    O   1.0     0.066706     0.139297     0.223212  Biso 1.000000     O
    O   1.0     0.567151     0.139733     0.223127  Biso 1.000000     O
    O   1.0     0.110307     0.374850     0.426609  Biso 1.000000     O
    O   1.0     0.610652     0.374942     0.426536  Biso 1.000000     O
    O   1.0     0.027785     0.408543     0.451011  Biso 1.000000     O
    O   1.0     0.528394     0.409499     0.450652  Biso 1.000000     O
    O   1.0     0.339645     0.130516     0.017388  Biso 1.000000     O
    O   1.0     0.839120     0.129611     0.017297  Biso 1.000000     O
    O   1.0     0.132399     0.238266     0.303525  Biso 1.000000     O
    O   1.0     0.632683     0.238546     0.303615  Biso 1.000000     O
    O   1.0     0.391535     0.144732     0.849678  Biso 1.000000     O
    O   1.0     0.891261     0.144425     0.849795  Biso 1.000000     O
    O   1.0     0.481827     0.148973     0.808874  Biso 1.000000     O
    O   1.0     0.981746     0.149365     0.809073  Biso 1.000000     O
    O   1.0     0.382330     0.113055     0.127568  Biso 1.000000     O
    O   1.0     0.881685     0.112322     0.127575  Biso 1.000000     O
    O   1.0     0.306913     0.528734     0.716201  Biso 1.000000     O
    O   1.0     0.807567     0.529286     0.716404  Biso 1.000000     O
    O   1.0     0.183112     0.360396     0.723076  Biso 1.000000     O
    O   1.0     0.683727     0.361279     0.723411  Biso 1.000000     O
    O   1.0     0.139566     0.124856     0.926677  Biso 1.000000     O
    O   1.0     0.639542     0.125071     0.926697  Biso 1.000000     O
    O   1.0     0.221986     0.090828     0.951206  Biso 1.000000     O
    O   1.0     0.721554     0.089915     0.950751  Biso 1.000000     O
    O   1.0     0.410521     0.369202     0.517285  Biso 1.000000     O
    O   1.0     0.910802     0.369552     0.517640  Biso 1.000000     O
    O   1.0     0.117558     0.261554     0.803695  Biso 1.000000     O
    O   1.0     0.617737     0.261825     0.803370  Biso 1.000000     O
    O   1.0     0.358683     0.355229     0.349703  Biso 1.000000     O
    O   1.0     0.858350     0.354558     0.349676  Biso 1.000000     O
    O   1.0     0.268412     0.351077     0.308796  Biso 1.000000     O
    O   1.0     0.767991     0.350388     0.309364  Biso 1.000000     O
    O   1.0     0.367995     0.387100     0.627410  Biso 1.000000     O
    O   1.0     0.868562     0.387984     0.627768  Biso 1.000000     O
    O   1.0     0.057194     0.029172     0.783735  Biso 1.000000     O
    O   1.0     0.557552     0.029132     0.783755  Biso 1.000000     O
    O   1.0     0.432915     0.860305     0.776874  Biso 1.000000     O
    O   1.0     0.933307     0.860636     0.776824  Biso 1.000000     O
    O   1.0     0.389351     0.625065     0.573491  Biso 1.000000     O
    O   1.0     0.889682     0.625138     0.573410  Biso 1.000000     O
    O   1.0     0.471571     0.590380     0.549417  Biso 1.000000     O
    O   1.0     0.972138     0.591219     0.549090  Biso 1.000000     O
    O   1.0     0.160892     0.870376     0.982729  Biso 1.000000     O
    O   1.0     0.660379     0.869442     0.982622  Biso 1.000000     O
    O   1.0     0.367350     0.761468     0.696425  Biso 1.000000     O
    O   1.0     0.867613     0.761721     0.696490  Biso 1.000000     O
    O   1.0     0.108756     0.855584     0.150231  Biso 1.000000     O
    O   1.0     0.608484     0.855255     0.150347  Biso 1.000000     O
    O   1.0     0.018255     0.850566     0.190955  Biso 1.000000     O
    O   1.0     0.518178     0.850957     0.191134  Biso 1.000000     O
    O   1.0     0.118317     0.887632     0.872451  Biso 1.000000     O
    O   1.0     0.617705     0.886940     0.872445  Biso 1.000000     O
    O   1.0     0.192424     0.470717     0.283613  Biso 1.000000     O
    O   1.0     0.693091     0.471266     0.283809  Biso 1.000000     O
    O   1.0     0.316280     0.638696     0.276597  Biso 1.000000     O
    O   1.0     0.816891     0.639593     0.276948  Biso 1.000000     O
    O   1.0     0.360482     0.874937     0.073335  Biso 1.000000     O
    O   1.0     0.860450     0.875150     0.073342  Biso 1.000000     O
    O   1.0     0.278468     0.910087     0.049278  Biso 1.000000     O
    O   1.0     0.778016     0.909130     0.048787  Biso 1.000000     O
    O   1.0     0.089135     0.630176     0.482414  Biso 1.000000     O
    O   1.0     0.589334     0.630242     0.482707  Biso 1.000000     O
    O   1.0     0.382280     0.738178     0.196660  Biso 1.000000     O
    O   1.0     0.882454     0.738429     0.196333  Biso 1.000000     O
    O   1.0     0.141614     0.645313     0.650346  Biso 1.000000     O
    O   1.0     0.641300     0.644739     0.650305  Biso 1.000000     O
    O   1.0     0.231999     0.649598     0.690660  Biso 1.000000     O
    O   1.0     0.731576     0.648922     0.691212  Biso 1.000000     O
    O   1.0     0.131419     0.611943     0.372265  Biso 1.000000     O
    O   1.0     0.631998     0.612801     0.372577  Biso 1.000000     O
   Zn   1.0     0.465954     0.101775     0.177018  Biso 1.000000    Zn
   Zn   1.0     0.965257     0.101511     0.177046  Biso 1.000000    Zn
   Zn   1.0     0.425519     0.863539     0.143651  Biso 1.000000    Zn
   Zn   1.0     0.925867     0.863780     0.143477  Biso 1.000000    Zn
   Zn   1.0     0.439358     0.393311     0.409705  Biso 1.000000    Zn
   Zn   1.0     0.938517     0.391995     0.409699  Biso 1.000000    Zn
   Zn   1.0     0.284348     0.398211     0.676875  Biso 1.000000    Zn
   Zn   1.0     0.785214     0.398682     0.677200  Biso 1.000000    Zn
   Zn   1.0     0.323782     0.636190     0.643534  Biso 1.000000    Zn
   Zn   1.0     0.824467     0.636497     0.643582  Biso 1.000000    Zn
   Zn   1.0     0.311036     0.106663     0.909798  Biso 1.000000    Zn
   Zn   1.0     0.810465     0.105795     0.909742  Biso 1.000000    Zn
   Zn   1.0     0.034746     0.898444     0.822968  Biso 1.000000    Zn
   Zn   1.0     0.534138     0.898236     0.822991  Biso 1.000000    Zn
   Zn   1.0     0.074136     0.136194     0.856544  Biso 1.000000    Zn
   Zn   1.0     0.574524     0.136464     0.856369  Biso 1.000000    Zn
   Zn   1.0     0.061415     0.607714     0.590345  Biso 1.000000    Zn
   Zn   1.0     0.560608     0.606531     0.590338  Biso 1.000000    Zn
   Zn   1.0     0.214780     0.601320     0.322823  Biso 1.000000    Zn
   Zn   1.0     0.715655     0.601789     0.323138  Biso 1.000000    Zn
   Zn   1.0     0.175525     0.363509     0.356434  Biso 1.000000    Zn
   Zn   1.0     0.676220     0.363832     0.356493  Biso 1.000000    Zn
   Zn   1.0     0.189556     0.894211     0.090283  Biso 1.000000    Zn
   Zn   1.0     0.688964     0.893305     0.090221  Biso 1.000000    Zn
