#======================================================================

# CRYSTAL DATA

#----------------------------------------------------------------------

data_VESTA_phase_1


_pd_phase_name                         MOF
_cell_length_a                         23.22900
_cell_length_b                         23.23200
_cell_length_c                         26.04100
_cell_angle_alpha                      90.02600
_cell_angle_beta                       90.02600
_cell_angle_gamma                      89.98000
_symmetry_space_group_name_H-M         "P 1"
_symmetry_Int_Tables_number            1

loop_
_symmetry_equiv_pos_as_xyz
   "x, y, z"

loop_
   _atom_site_label
   _atom_site_occupancy
   _atom_site_fract_x
   _atom_site_fract_y
   _atom_site_fract_z
   _atom_site_adp_type
   _atom_site_B_iso_or_equiv
   _atom_site_type_symbol
    H   1.0     0.446201     0.368535     0.808668  Biso 1.000000     H
    H   1.0     0.446201     0.868529     0.808671  Biso 1.000000     H
    H   1.0     0.946195     0.368537     0.808668  Biso 1.000000     H
    H   1.0     0.946192     0.868531     0.808667  Biso 1.000000     H
    H   1.0     0.415874     0.321627     0.855272  Biso 1.000000     H
    H   1.0     0.415873     0.821619     0.855274  Biso 1.000000     H
    H   1.0     0.915869     0.321628     0.855272  Biso 1.000000     H
    H   1.0     0.915866     0.821624     0.855272  Biso 1.000000     H
    H   1.0     0.489917     0.315388     0.838011  Biso 1.000000     H
    H   1.0     0.489916     0.815381     0.838013  Biso 1.000000     H
    H   1.0     0.989911     0.315390     0.838010  Biso 1.000000     H
    H   1.0     0.989909     0.815386     0.838010  Biso 1.000000     H
    H   1.0     0.053844     0.131517     0.808582  Biso 1.000000     H
    H   1.0     0.053840     0.631515     0.808590  Biso 1.000000     H
    H   1.0     0.553835     0.131521     0.808592  Biso 1.000000     H
    H   1.0     0.553832     0.631515     0.808587  Biso 1.000000     H
    H   1.0     0.084192     0.178448     0.855221  Biso 1.000000     H
    H   1.0     0.084190     0.678447     0.855227  Biso 1.000000     H
    H   1.0     0.584186     0.178454     0.855228  Biso 1.000000     H
    H   1.0     0.584182     0.678446     0.855225  Biso 1.000000     H
    H   1.0     0.010139     0.184673     0.837933  Biso 1.000000     H
    H   1.0     0.010136     0.684674     0.837939  Biso 1.000000     H
    H   1.0     0.510132     0.184681     0.837941  Biso 1.000000     H
    H   1.0     0.510128     0.684673     0.837936  Biso 1.000000     H
    H   1.0     0.131448     0.446248     0.308634  Biso 1.000000     H
    H   1.0     0.131454     0.946241     0.308654  Biso 1.000000     H
    H   1.0     0.631441     0.446249     0.308640  Biso 1.000000     H
    H   1.0     0.631442     0.946240     0.308645  Biso 1.000000     H
    H   1.0     0.178402     0.415912     0.355254  Biso 1.000000     H
    H   1.0     0.178413     0.915901     0.355266  Biso 1.000000     H
    H   1.0     0.678396     0.415912     0.355258  Biso 1.000000     H
    H   1.0     0.678398     0.915902     0.355261  Biso 1.000000     H
    H   1.0     0.184598     0.489943     0.337999  Biso 1.000000     H
    H   1.0     0.184609     0.989932     0.338014  Biso 1.000000     H
    H   1.0     0.684593     0.489943     0.338003  Biso 1.000000     H
    H   1.0     0.684594     0.989934     0.338008  Biso 1.000000     H
    H   1.0     0.368528     0.053793     0.308678  Biso 1.000000     H
    H   1.0     0.368527     0.553782     0.308676  Biso 1.000000     H
    H   1.0     0.868521     0.053791     0.308679  Biso 1.000000     H
    H   1.0     0.868517     0.553782     0.308682  Biso 1.000000     H
    H   1.0     0.321593     0.084159     0.355282  Biso 1.000000     H
    H   1.0     0.321592     0.584148     0.355281  Biso 1.000000     H
    H   1.0     0.821585     0.084157     0.355284  Biso 1.000000     H
    H   1.0     0.821580     0.584149     0.355284  Biso 1.000000     H
    H   1.0     0.315386     0.010119     0.337997  Biso 1.000000     H
    H   1.0     0.315383     0.510108     0.337994  Biso 1.000000     H
    H   1.0     0.815377     0.010117     0.337997  Biso 1.000000     H
    H   1.0     0.815371     0.510109     0.337999  Biso 1.000000     H
    H   1.0     0.053754     0.368533     0.691397  Biso 1.000000     H
    H   1.0     0.053752     0.868521     0.691390  Biso 1.000000     H
    H   1.0     0.553745     0.368524     0.691387  Biso 1.000000     H
    H   1.0     0.553746     0.868522     0.691389  Biso 1.000000     H
    H   1.0     0.084089     0.321595     0.644765  Biso 1.000000     H
    H   1.0     0.084091     0.821580     0.644763  Biso 1.000000     H
    H   1.0     0.584085     0.321582     0.644761  Biso 1.000000     H
    H   1.0     0.584086     0.821581     0.644762  Biso 1.000000     H
    H   1.0     0.010048     0.315398     0.662025  Biso 1.000000     H
    H   1.0     0.010049     0.815382     0.662020  Biso 1.000000     H
    H   1.0     0.510043     0.315384     0.662018  Biso 1.000000     H
    H   1.0     0.510043     0.815384     0.662018  Biso 1.000000     H
    H   1.0     0.446198     0.131477     0.691358  Biso 1.000000     H
    H   1.0     0.446197     0.631475     0.691352  Biso 1.000000     H
    H   1.0     0.946188     0.131476     0.691361  Biso 1.000000     H
    H   1.0     0.946188     0.631470     0.691362  Biso 1.000000     H
    H   1.0     0.415831     0.178395     0.644741  Biso 1.000000     H
    H   1.0     0.415828     0.678397     0.644738  Biso 1.000000     H
    H   1.0     0.915822     0.178394     0.644743  Biso 1.000000     H
    H   1.0     0.915823     0.678388     0.644743  Biso 1.000000     H
    H   1.0     0.489883     0.184605     0.662029  Biso 1.000000     H
    H   1.0     0.489880     0.684606     0.662026  Biso 1.000000     H
    H   1.0     0.989874     0.184602     0.662032  Biso 1.000000     H
    H   1.0     0.989874     0.684596     0.662033  Biso 1.000000     H
    H   1.0     0.368489     0.446166     0.191407  Biso 1.000000     H
    H   1.0     0.368479     0.946159     0.191403  Biso 1.000000     H
    H   1.0     0.868481     0.446163     0.191412  Biso 1.000000     H
    H   1.0     0.868476     0.946158     0.191409  Biso 1.000000     H
    H   1.0     0.321543     0.415815     0.144782  Biso 1.000000     H
    H   1.0     0.321530     0.915806     0.144782  Biso 1.000000     H
    H   1.0     0.821535     0.415815     0.144786  Biso 1.000000     H
    H   1.0     0.821528     0.915807     0.144785  Biso 1.000000     H
    H   1.0     0.315315     0.489858     0.162067  Biso 1.000000     H
    H   1.0     0.315301     0.989849     0.162066  Biso 1.000000     H
    H   1.0     0.815309     0.489857     0.162071  Biso 1.000000     H
    H   1.0     0.815301     0.989849     0.162069  Biso 1.000000     H
    H   1.0     0.131440     0.053786     0.191333  Biso 1.000000     H
    H   1.0     0.131444     0.553780     0.191323  Biso 1.000000     H
    H   1.0     0.631435     0.053788     0.191330  Biso 1.000000     H
    H   1.0     0.631437     0.553779     0.191324  Biso 1.000000     H
    H   1.0     0.178362     0.084112     0.144739  Biso 1.000000     H
    H   1.0     0.178370     0.584110     0.144734  Biso 1.000000     H
    H   1.0     0.678359     0.084115     0.144739  Biso 1.000000     H
    H   1.0     0.678363     0.584108     0.144735  Biso 1.000000     H
    H   1.0     0.184601     0.010080     0.161998  Biso 1.000000     H
    H   1.0     0.184608     0.510077     0.161990  Biso 1.000000     H
    H   1.0     0.684597     0.010083     0.161996  Biso 1.000000     H
    H   1.0     0.684602     0.510076     0.161991  Biso 1.000000     H
    H   1.0     0.053796     0.131454     0.191352  Biso 1.000000     H
    H   1.0     0.053795     0.631447     0.191352  Biso 1.000000     H
    H   1.0     0.553789     0.131458     0.191349  Biso 1.000000     H
    H   1.0     0.553788     0.631449     0.191346  Biso 1.000000     H
    H   1.0     0.084121     0.178360     0.144745  Biso 1.000000     H
    H   1.0     0.084121     0.678355     0.144747  Biso 1.000000     H
    H   1.0     0.584116     0.178366     0.144744  Biso 1.000000     H
    H   1.0     0.584116     0.678358     0.144743  Biso 1.000000     H
    H   1.0     0.010078     0.184598     0.162008  Biso 1.000000     H
    H   1.0     0.010078     0.684593     0.162009  Biso 1.000000     H
    H   1.0     0.510073     0.184605     0.162006  Biso 1.000000     H
    H   1.0     0.510073     0.684596     0.162004  Biso 1.000000     H
    H   1.0     0.446158     0.368476     0.191429  Biso 1.000000     H
    H   1.0     0.446154     0.868466     0.191429  Biso 1.000000     H
    H   1.0     0.946150     0.368470     0.191423  Biso 1.000000     H
    H   1.0     0.946148     0.868464     0.191429  Biso 1.000000     H
    H   1.0     0.415809     0.321545     0.144791  Biso 1.000000     H
    H   1.0     0.415804     0.821534     0.144792  Biso 1.000000     H
    H   1.0     0.915797     0.321537     0.144788  Biso 1.000000     H
    H   1.0     0.915798     0.821532     0.144792  Biso 1.000000     H
    H   1.0     0.489862     0.315317     0.162080  Biso 1.000000     H
    H   1.0     0.489858     0.815308     0.162080  Biso 1.000000     H
    H   1.0     0.989851     0.315310     0.162074  Biso 1.000000     H
    H   1.0     0.989852     0.815306     0.162080  Biso 1.000000     H
    H   1.0     0.368546     0.053744     0.691366  Biso 1.000000     H
    H   1.0     0.368546     0.553738     0.691373  Biso 1.000000     H
    H   1.0     0.868530     0.053742     0.691362  Biso 1.000000     H
    H   1.0     0.868534     0.553737     0.691368  Biso 1.000000     H
    H   1.0     0.321588     0.084083     0.644752  Biso 1.000000     H
    H   1.0     0.321589     0.584076     0.644757  Biso 1.000000     H
    H   1.0     0.821569     0.084085     0.644751  Biso 1.000000     H
    H   1.0     0.821576     0.584077     0.644754  Biso 1.000000     H
    H   1.0     0.315391     0.010052     0.662006  Biso 1.000000     H
    H   1.0     0.315393     0.510045     0.662011  Biso 1.000000     H
    H   1.0     0.815371     0.010053     0.662003  Biso 1.000000     H
    H   1.0     0.815379     0.510046     0.662006  Biso 1.000000     H
    H   1.0     0.131468     0.446205     0.691338  Biso 1.000000     H
    H   1.0     0.131468     0.946194     0.691337  Biso 1.000000     H
    H   1.0     0.631458     0.446201     0.691343  Biso 1.000000     H
    H   1.0     0.631458     0.946195     0.691341  Biso 1.000000     H
    H   1.0     0.178403     0.415840     0.644734  Biso 1.000000     H
    H   1.0     0.178404     0.915828     0.644734  Biso 1.000000     H
    H   1.0     0.678391     0.415837     0.644736  Biso 1.000000     H
    H   1.0     0.678393     0.915829     0.644736  Biso 1.000000     H
    H   1.0     0.184612     0.489880     0.662020  Biso 1.000000     H
    H   1.0     0.184611     0.989868     0.662019  Biso 1.000000     H
    H   1.0     0.684599     0.489877     0.662023  Biso 1.000000     H
    H   1.0     0.684601     0.989870     0.662022  Biso 1.000000     H
    H   1.0     0.446243     0.131465     0.308623  Biso 1.000000     H
    H   1.0     0.446242     0.631455     0.308622  Biso 1.000000     H
    H   1.0     0.946239     0.131469     0.308630  Biso 1.000000     H
    H   1.0     0.946235     0.631457     0.308629  Biso 1.000000     H
    H   1.0     0.415905     0.178405     0.355252  Biso 1.000000     H
    H   1.0     0.415905     0.678394     0.355252  Biso 1.000000     H
    H   1.0     0.915899     0.178411     0.355256  Biso 1.000000     H
    H   1.0     0.915896     0.678399     0.355256  Biso 1.000000     H
    H   1.0     0.489947     0.184602     0.337994  Biso 1.000000     H
    H   1.0     0.489947     0.684591     0.337994  Biso 1.000000     H
    H   1.0     0.989941     0.184609     0.337998  Biso 1.000000     H
    H   1.0     0.989938     0.684596     0.337999  Biso 1.000000     H
    H   1.0     0.053803     0.368519     0.308651  Biso 1.000000     H
    H   1.0     0.053799     0.868509     0.308657  Biso 1.000000     H
    H   1.0     0.553793     0.368517     0.308658  Biso 1.000000     H
    H   1.0     0.553791     0.868507     0.308657  Biso 1.000000     H
    H   1.0     0.084168     0.321602     0.355270  Biso 1.000000     H
    H   1.0     0.084165     0.821591     0.355275  Biso 1.000000     H
    H   1.0     0.584161     0.321598     0.355275  Biso 1.000000     H
    H   1.0     0.584157     0.821589     0.355274  Biso 1.000000     H
    H   1.0     0.010116     0.315394     0.337981  Biso 1.000000     H
    H   1.0     0.010114     0.815382     0.337986  Biso 1.000000     H
    H   1.0     0.510109     0.315389     0.337987  Biso 1.000000     H
    H   1.0     0.510106     0.815380     0.337985  Biso 1.000000     H
    H   1.0     0.131514     0.053830     0.808606  Biso 1.000000     H
    H   1.0     0.131509     0.553822     0.808607  Biso 1.000000     H
    H   1.0     0.631510     0.053829     0.808621  Biso 1.000000     H
    H   1.0     0.631504     0.553821     0.808612  Biso 1.000000     H
    H   1.0     0.178461     0.084182     0.855230  Biso 1.000000     H
    H   1.0     0.178456     0.584172     0.855232  Biso 1.000000     H
    H   1.0     0.678461     0.084185     0.855239  Biso 1.000000     H
    H   1.0     0.678453     0.584174     0.855234  Biso 1.000000     H
    H   1.0     0.184689     0.010139     0.837947  Biso 1.000000     H
    H   1.0     0.184683     0.510130     0.837947  Biso 1.000000     H
    H   1.0     0.684689     0.010141     0.837958  Biso 1.000000     H
    H   1.0     0.684681     0.510131     0.837950  Biso 1.000000     H
    H   1.0     0.368555     0.446206     0.808686  Biso 1.000000     H
    H   1.0     0.368554     0.946201     0.808686  Biso 1.000000     H
    H   1.0     0.868549     0.446208     0.808683  Biso 1.000000     H
    H   1.0     0.868544     0.946201     0.808689  Biso 1.000000     H
    H   1.0     0.321631     0.415878     0.855278  Biso 1.000000     H
    H   1.0     0.321630     0.915873     0.855278  Biso 1.000000     H
    H   1.0     0.821627     0.415882     0.855277  Biso 1.000000     H
    H   1.0     0.821620     0.915873     0.855281  Biso 1.000000     H
    H   1.0     0.315393     0.489910     0.838021  Biso 1.000000     H
    H   1.0     0.315391     0.989905     0.838020  Biso 1.000000     H
    H   1.0     0.815389     0.489914     0.838018  Biso 1.000000     H
    H   1.0     0.815381     0.989905     0.838023  Biso 1.000000     H
    H   1.0     0.315248     0.315307     0.951869  Biso 1.000000     H
    H   1.0     0.315276     0.815271     0.951871  Biso 1.000000     H
    H   1.0     0.815273     0.315277     0.951872  Biso 1.000000     H
    H   1.0     0.815264     0.815276     0.951871  Biso 1.000000     H
    H   1.0     0.184716     0.184752     0.951743  Biso 1.000000     H
    H   1.0     0.184744     0.684715     0.951746  Biso 1.000000     H
    H   1.0     0.684739     0.184723     0.951745  Biso 1.000000     H
    H   1.0     0.684731     0.684721     0.951746  Biso 1.000000     H
    H   1.0     0.184685     0.315274     0.451797  Biso 1.000000     H
    H   1.0     0.184716     0.815296     0.451800  Biso 1.000000     H
    H   1.0     0.684705     0.315299     0.451800  Biso 1.000000     H
    H   1.0     0.684703     0.815291     0.451800  Biso 1.000000     H
    H   1.0     0.315265     0.184676     0.451798  Biso 1.000000     H
    H   1.0     0.315299     0.684701     0.451801  Biso 1.000000     H
    H   1.0     0.815285     0.184701     0.451801  Biso 1.000000     H
    H   1.0     0.815284     0.684694     0.451800  Biso 1.000000     H
    H   1.0     0.184683     0.315272     0.548214  Biso 1.000000     H
    H   1.0     0.184711     0.815292     0.548217  Biso 1.000000     H
    H   1.0     0.684697     0.315293     0.548217  Biso 1.000000     H
    H   1.0     0.684704     0.815292     0.548217  Biso 1.000000     H
    H   1.0     0.315263     0.184674     0.548215  Biso 1.000000     H
    H   1.0     0.315294     0.684697     0.548218  Biso 1.000000     H
    H   1.0     0.815277     0.184694     0.548218  Biso 1.000000     H
    H   1.0     0.815285     0.684695     0.548217  Biso 1.000000     H
    H   1.0     0.315236     0.315287     0.048269  Biso 1.000000     H
    H   1.0     0.315255     0.815261     0.048272  Biso 1.000000     H
    H   1.0     0.815254     0.315264     0.048272  Biso 1.000000     H
    H   1.0     0.815254     0.815255     0.048271  Biso 1.000000     H
    H   1.0     0.184704     0.184732     0.048143  Biso 1.000000     H
    H   1.0     0.184723     0.684704     0.048146  Biso 1.000000     H
    H   1.0     0.684720     0.184710     0.048146  Biso 1.000000     H
    H   1.0     0.684721     0.684700     0.048146  Biso 1.000000     H
    C   1.0     0.446516     0.324033     0.823202  Biso 1.000000     C
    C   1.0     0.446515     0.824026     0.823204  Biso 1.000000     C
    C   1.0     0.946511     0.324034     0.823202  Biso 1.000000     C
    C   1.0     0.946508     0.824030     0.823202  Biso 1.000000     C
    C   1.0     0.431515     0.281901     0.782074  Biso 1.000000     C
    C   1.0     0.431513     0.781895     0.782075  Biso 1.000000     C
    C   1.0     0.931508     0.281903     0.782074  Biso 1.000000     C
    C   1.0     0.931506     0.781896     0.782074  Biso 1.000000     C
    C   1.0     0.053533     0.176026     0.823138  Biso 1.000000     C
    C   1.0     0.053530     0.676024     0.823145  Biso 1.000000     C
    C   1.0     0.553525     0.176030     0.823146  Biso 1.000000     C
    C   1.0     0.553522     0.676024     0.823142  Biso 1.000000     C
    C   1.0     0.068506     0.218141     0.782035  Biso 1.000000     C
    C   1.0     0.068504     0.718136     0.782039  Biso 1.000000     C
    C   1.0     0.568499     0.218142     0.782040  Biso 1.000000     C
    C   1.0     0.568497     0.718137     0.782037  Biso 1.000000     C
    C   1.0     0.175966     0.446552     0.323184  Biso 1.000000     C
    C   1.0     0.175973     0.946542     0.323198  Biso 1.000000     C
    C   1.0     0.675959     0.446552     0.323188  Biso 1.000000     C
    C   1.0     0.675960     0.946543     0.323192  Biso 1.000000     C
    C   1.0     0.218090     0.431536     0.282073  Biso 1.000000     C
    C   1.0     0.218091     0.931528     0.282081  Biso 1.000000     C
    C   1.0     0.718082     0.431537     0.282076  Biso 1.000000     C
    C   1.0     0.718081     0.931528     0.282078  Biso 1.000000     C
    C   1.0     0.324015     0.053501     0.323202  Biso 1.000000     C
    C   1.0     0.324014     0.553490     0.323200  Biso 1.000000     C
    C   1.0     0.824008     0.053499     0.323203  Biso 1.000000     C
    C   1.0     0.824003     0.553491     0.323205  Biso 1.000000     C
    C   1.0     0.281877     0.068490     0.282071  Biso 1.000000     C
    C   1.0     0.281876     0.568481     0.282070  Biso 1.000000     C
    C   1.0     0.781871     0.068489     0.282072  Biso 1.000000     C
    C   1.0     0.781868     0.568481     0.282072  Biso 1.000000     C
    C   1.0     0.053447     0.324027     0.676836  Biso 1.000000     C
    C   1.0     0.053447     0.824013     0.676833  Biso 1.000000     C
    C   1.0     0.553441     0.324016     0.676831  Biso 1.000000     C
    C   1.0     0.553441     0.824015     0.676831  Biso 1.000000     C
    C   1.0     0.068463     0.281902     0.717940  Biso 1.000000     C
    C   1.0     0.068463     0.781893     0.717940  Biso 1.000000     C
    C   1.0     0.568457     0.281897     0.717939  Biso 1.000000     C
    C   1.0     0.568456     0.781894     0.717939  Biso 1.000000     C
    C   1.0     0.446493     0.175978     0.676822  Biso 1.000000     C
    C   1.0     0.446490     0.675978     0.676819  Biso 1.000000     C
    C   1.0     0.946484     0.175977     0.676824  Biso 1.000000     C
    C   1.0     0.946484     0.675971     0.676825  Biso 1.000000     C
    C   1.0     0.431503     0.218116     0.717945  Biso 1.000000     C
    C   1.0     0.431502     0.718113     0.717945  Biso 1.000000     C
    C   1.0     0.931495     0.218117     0.717946  Biso 1.000000     C
    C   1.0     0.931495     0.718110     0.717948  Biso 1.000000     C
    C   1.0     0.323969     0.446472     0.176864  Biso 1.000000     C
    C   1.0     0.323958     0.946464     0.176863  Biso 1.000000     C
    C   1.0     0.823962     0.446471     0.176868  Biso 1.000000     C
    C   1.0     0.823956     0.946464     0.176866  Biso 1.000000     C
    C   1.0     0.281856     0.431496     0.217975  Biso 1.000000     C
    C   1.0     0.281849     0.931488     0.217978  Biso 1.000000     C
    C   1.0     0.781847     0.431495     0.217978  Biso 1.000000     C
    C   1.0     0.781844     0.931488     0.217979  Biso 1.000000     C
    C   1.0     0.175953     0.053473     0.176809  Biso 1.000000     C
    C   1.0     0.175958     0.553469     0.176802  Biso 1.000000     C
    C   1.0     0.675948     0.053476     0.176807  Biso 1.000000     C
    C   1.0     0.675952     0.553468     0.176802  Biso 1.000000     C
    C   1.0     0.218086     0.068478     0.217943  Biso 1.000000     C
    C   1.0     0.218087     0.568471     0.217939  Biso 1.000000     C
    C   1.0     0.718080     0.068479     0.217943  Biso 1.000000     C
    C   1.0     0.718081     0.568471     0.217940  Biso 1.000000     C
    C   1.0     0.053480     0.175955     0.176816  Biso 1.000000     C
    C   1.0     0.053479     0.675949     0.176817  Biso 1.000000     C
    C   1.0     0.553474     0.175960     0.176814  Biso 1.000000     C
    C   1.0     0.553473     0.675951     0.176812  Biso 1.000000     C
    C   1.0     0.068482     0.218090     0.217942  Biso 1.000000     C
    C   1.0     0.068482     0.718083     0.217944  Biso 1.000000     C
    C   1.0     0.568476     0.218092     0.217943  Biso 1.000000     C
    C   1.0     0.568474     0.718083     0.217941  Biso 1.000000     C
    C   1.0     0.446468     0.323967     0.176874  Biso 1.000000     C
    C   1.0     0.446464     0.823957     0.176874  Biso 1.000000     C
    C   1.0     0.946458     0.323961     0.176870  Biso 1.000000     C
    C   1.0     0.946458     0.823955     0.176875  Biso 1.000000     C
    C   1.0     0.431493     0.281853     0.217978  Biso 1.000000     C
    C   1.0     0.431490     0.781844     0.217979  Biso 1.000000     C
    C   1.0     0.931485     0.281850     0.217977  Biso 1.000000     C
    C   1.0     0.931484     0.781842     0.217980  Biso 1.000000     C
    C   1.0     0.324027     0.053442     0.676821  Biso 1.000000     C
    C   1.0     0.324027     0.553436     0.676826  Biso 1.000000     C
    C   1.0     0.824009     0.053443     0.676819  Biso 1.000000     C
    C   1.0     0.824015     0.553436     0.676822  Biso 1.000000     C
    C   1.0     0.281908     0.068458     0.717936  Biso 1.000000     C
    C   1.0     0.281906     0.568451     0.717940  Biso 1.000000     C
    C   1.0     0.781894     0.068458     0.717937  Biso 1.000000     C
    C   1.0     0.781896     0.568451     0.717938  Biso 1.000000     C
    C   1.0     0.175981     0.446497     0.676814  Biso 1.000000     C
    C   1.0     0.175981     0.946486     0.676813  Biso 1.000000     C
    C   1.0     0.675970     0.446495     0.676817  Biso 1.000000     C
    C   1.0     0.675971     0.946487     0.676816  Biso 1.000000     C
    C   1.0     0.218118     0.431507     0.717945  Biso 1.000000     C
    C   1.0     0.218118     0.931498     0.717945  Biso 1.000000     C
    C   1.0     0.718109     0.431505     0.717946  Biso 1.000000     C
    C   1.0     0.718109     0.931497     0.717947  Biso 1.000000     C
    C   1.0     0.446548     0.175972     0.323182  Biso 1.000000     C
    C   1.0     0.446548     0.675962     0.323181  Biso 1.000000     C
    C   1.0     0.946543     0.175977     0.323186  Biso 1.000000     C
    C   1.0     0.946540     0.675965     0.323186  Biso 1.000000     C
    C   1.0     0.431534     0.218094     0.282075  Biso 1.000000     C
    C   1.0     0.431532     0.718085     0.282076  Biso 1.000000     C
    C   1.0     0.931527     0.218095     0.282077  Biso 1.000000     C
    C   1.0     0.931525     0.718085     0.282078  Biso 1.000000     C
    C   1.0     0.053507     0.324018     0.323189  Biso 1.000000     C
    C   1.0     0.053504     0.824008     0.323194  Biso 1.000000     C
    C   1.0     0.553499     0.324015     0.323195  Biso 1.000000     C
    C   1.0     0.553496     0.824006     0.323193  Biso 1.000000     C
    C   1.0     0.068495     0.281878     0.282067  Biso 1.000000     C
    C   1.0     0.068493     0.781869     0.282071  Biso 1.000000     C
    C   1.0     0.568488     0.281877     0.282071  Biso 1.000000     C
    C   1.0     0.568486     0.781868     0.282070  Biso 1.000000     C
    C   1.0     0.176034     0.053525     0.823149  Biso 1.000000     C
    C   1.0     0.176029     0.553516     0.823150  Biso 1.000000     C
    C   1.0     0.676032     0.053525     0.823160  Biso 1.000000     C
    C   1.0     0.676025     0.553516     0.823153  Biso 1.000000     C
    C   1.0     0.218146     0.068500     0.782037  Biso 1.000000     C
    C   1.0     0.218143     0.568492     0.782039  Biso 1.000000     C
    C   1.0     0.718138     0.068500     0.782043  Biso 1.000000     C
    C   1.0     0.718135     0.568491     0.782039  Biso 1.000000     C
    C   1.0     0.324041     0.446518     0.823209  Biso 1.000000     C
    C   1.0     0.324041     0.946512     0.823209  Biso 1.000000     C
    C   1.0     0.824037     0.446520     0.823207  Biso 1.000000     C
    C   1.0     0.824030     0.946512     0.823212  Biso 1.000000     C
    C   1.0     0.281909     0.431516     0.782074  Biso 1.000000     C
    C   1.0     0.281909     0.931509     0.782074  Biso 1.000000     C
    C   1.0     0.781903     0.431517     0.782073  Biso 1.000000     C
    C   1.0     0.781899     0.931509     0.782076  Biso 1.000000     C
    C   1.0     0.286832     0.286877     0.973339  Biso 1.000000     C
    C   1.0     0.286852     0.786848     0.973342  Biso 1.000000     C
    C   1.0     0.786850     0.286854     0.973342  Biso 1.000000     C
    C   1.0     0.786848     0.786846     0.973341  Biso 1.000000     C
    C   1.0     0.213136     0.213167     0.973270  Biso 1.000000     C
    C   1.0     0.213157     0.713138     0.973273  Biso 1.000000     C
    C   1.0     0.713153     0.213145     0.973272  Biso 1.000000     C
    C   1.0     0.713152     0.713137     0.973272  Biso 1.000000     C
    C   1.0     0.213116     0.286844     0.473296  Biso 1.000000     C
    C   1.0     0.213144     0.786863     0.473299  Biso 1.000000     C
    C   1.0     0.713131     0.286865     0.473299  Biso 1.000000     C
    C   1.0     0.713135     0.786861     0.473299  Biso 1.000000     C
    C   1.0     0.286839     0.213111     0.473296  Biso 1.000000     C
    C   1.0     0.286868     0.713132     0.473299  Biso 1.000000     C
    C   1.0     0.786854     0.213131     0.473299  Biso 1.000000     C
    C   1.0     0.786858     0.713129     0.473299  Biso 1.000000     C
    C   1.0     0.213111     0.286839     0.526715  Biso 1.000000     C
    C   1.0     0.213141     0.786860     0.526718  Biso 1.000000     C
    C   1.0     0.713128     0.286862     0.526718  Biso 1.000000     C
    C   1.0     0.713130     0.786857     0.526718  Biso 1.000000     C
    C   1.0     0.286834     0.213106     0.526716  Biso 1.000000     C
    C   1.0     0.286865     0.713129     0.526719  Biso 1.000000     C
    C   1.0     0.786851     0.213129     0.526718  Biso 1.000000     C
    C   1.0     0.786853     0.713124     0.526718  Biso 1.000000     C
    C   1.0     0.286818     0.286870     0.026742  Biso 1.000000     C
    C   1.0     0.286842     0.786837     0.026745  Biso 1.000000     C
    C   1.0     0.786839     0.286843     0.026745  Biso 1.000000     C
    C   1.0     0.786834     0.786839     0.026744  Biso 1.000000     C
    C   1.0     0.213122     0.213160     0.026673  Biso 1.000000     C
    C   1.0     0.213147     0.713127     0.026676  Biso 1.000000     C
    C   1.0     0.713142     0.213134     0.026676  Biso 1.000000     C
    C   1.0     0.713138     0.713130     0.026675  Biso 1.000000     C
    C   1.0     0.468434     0.250024     0.749996  Biso 1.000000     C
    C   1.0     0.468433     0.750021     0.749996  Biso 1.000000     C
    C   1.0     0.968427     0.250025     0.749997  Biso 1.000000     C
    C   1.0     0.968426     0.750019     0.749997  Biso 1.000000     C
    C   1.0     0.031560     0.250030     0.749988  Biso 1.000000     C
    C   1.0     0.031558     0.750023     0.749990  Biso 1.000000     C
    C   1.0     0.531553     0.250027     0.749990  Biso 1.000000     C
    C   1.0     0.531551     0.750024     0.749988  Biso 1.000000     C
    C   1.0     0.249964     0.468440     0.250024  Biso 1.000000     C
    C   1.0     0.249962     0.968431     0.250030  Biso 1.000000     C
    C   1.0     0.749956     0.468439     0.250027  Biso 1.000000     C
    C   1.0     0.749954     0.968431     0.250029  Biso 1.000000     C
    C   1.0     0.249965     0.031560     0.250021  Biso 1.000000     C
    C   1.0     0.249967     0.531552     0.250016  Biso 1.000000     C
    C   1.0     0.749959     0.031560     0.250021  Biso 1.000000     C
    C   1.0     0.749959     0.531552     0.250019  Biso 1.000000     C
    C   1.0     0.031564     0.249968     0.250018  Biso 1.000000     C
    C   1.0     0.031562     0.749960     0.250021  Biso 1.000000     C
    C   1.0     0.531557     0.249969     0.250020  Biso 1.000000     C
    C   1.0     0.531555     0.749960     0.250019  Biso 1.000000     C
    C   1.0     0.468438     0.249966     0.250027  Biso 1.000000     C
    C   1.0     0.468436     0.749955     0.250026  Biso 1.000000     C
    C   1.0     0.968431     0.249965     0.250026  Biso 1.000000     C
    C   1.0     0.968429     0.749956     0.250029  Biso 1.000000     C
    C   1.0     0.250035     0.031555     0.749987  Biso 1.000000     C
    C   1.0     0.250032     0.531548     0.749989  Biso 1.000000     C
    C   1.0     0.750025     0.031556     0.749991  Biso 1.000000     C
    C   1.0     0.750024     0.531548     0.749989  Biso 1.000000     C
    C   1.0     0.250030     0.468435     0.749997  Biso 1.000000     C
    C   1.0     0.250031     0.968427     0.749995  Biso 1.000000     C
    C   1.0     0.750022     0.468435     0.749996  Biso 1.000000     C
    C   1.0     0.750020     0.968427     0.749998  Biso 1.000000     C
    C   1.0     0.249992     0.250018     0.888422  Biso 1.000000     C
    C   1.0     0.250010     0.749993     0.888424  Biso 1.000000     C
    C   1.0     0.750004     0.250002     0.888424  Biso 1.000000     C
    C   1.0     0.749995     0.750000     0.888424  Biso 1.000000     C
    C   1.0     0.249979     0.250032     0.946090  Biso 1.000000     C
    C   1.0     0.250014     0.749989     0.946093  Biso 1.000000     C
    C   1.0     0.750008     0.249999     0.946093  Biso 1.000000     C
    C   1.0     0.749993     0.750004     0.946093  Biso 1.000000     C
    C   1.0     0.249990     0.249990     0.388414  Biso 1.000000     C
    C   1.0     0.250006     0.749997     0.388417  Biso 1.000000     C
    C   1.0     0.749998     0.250003     0.388416  Biso 1.000000     C
    C   1.0     0.749993     0.749992     0.388416  Biso 1.000000     C
    C   1.0     0.249973     0.249972     0.446082  Biso 1.000000     C
    C   1.0     0.250006     0.749997     0.446084  Biso 1.000000     C
    C   1.0     0.749995     0.250000     0.446084  Biso 1.000000     C
    C   1.0     0.749988     0.749987     0.446084  Biso 1.000000     C
    C   1.0     0.249984     0.249984     0.611598  Biso 1.000000     C
    C   1.0     0.249996     0.749988     0.611601  Biso 1.000000     C
    C   1.0     0.749985     0.249991     0.611601  Biso 1.000000     C
    C   1.0     0.749991     0.749990     0.611601  Biso 1.000000     C
    C   1.0     0.249979     0.249979     0.553930  Biso 1.000000     C
    C   1.0     0.250003     0.749995     0.553933  Biso 1.000000     C
    C   1.0     0.749987     0.249993     0.553933  Biso 1.000000     C
    C   1.0     0.749999     0.749998     0.553933  Biso 1.000000     C
    C   1.0     0.249984     0.249997     0.111591  Biso 1.000000     C
    C   1.0     0.249987     0.749985     0.111593  Biso 1.000000     C
    C   1.0     0.749984     0.249990     0.111593  Biso 1.000000     C
    C   1.0     0.749988     0.749978     0.111593  Biso 1.000000     C
    C   1.0     0.249976     0.250003     0.053922  Biso 1.000000     C
    C   1.0     0.249985     0.749986     0.053924  Biso 1.000000     C
    C   1.0     0.749984     0.249989     0.053924  Biso 1.000000     C
    C   1.0     0.749992     0.749973     0.053924  Biso 1.000000     C
    N   1.0     0.376319     0.269623     0.769909  Biso 1.000000     N
    N   1.0     0.376317     0.769616     0.769912  Biso 1.000000     N
    N   1.0     0.876312     0.269622     0.769913  Biso 1.000000     N
    N   1.0     0.876311     0.769616     0.769911  Biso 1.000000     N
    N   1.0     0.123690     0.230385     0.769860  Biso 1.000000     N
    N   1.0     0.123688     0.730379     0.769863  Biso 1.000000     N
    N   1.0     0.623683     0.230386     0.769864  Biso 1.000000     N
    N   1.0     0.623681     0.730379     0.769862  Biso 1.000000     N
    N   1.0     0.230349     0.376340     0.269895  Biso 1.000000     N
    N   1.0     0.230351     0.876331     0.269904  Biso 1.000000     N
    N   1.0     0.730343     0.376340     0.269900  Biso 1.000000     N
    N   1.0     0.730342     0.876331     0.269901  Biso 1.000000     N
    N   1.0     0.269647     0.123675     0.269868  Biso 1.000000     N
    N   1.0     0.269648     0.623666     0.269867  Biso 1.000000     N
    N   1.0     0.769642     0.123674     0.269869  Biso 1.000000     N
    N   1.0     0.769638     0.623666     0.269870  Biso 1.000000     N
    N   1.0     0.123667     0.269643     0.730117  Biso 1.000000     N
    N   1.0     0.123666     0.769635     0.730118  Biso 1.000000     N
    N   1.0     0.623660     0.269640     0.730117  Biso 1.000000     N
    N   1.0     0.623659     0.769635     0.730116  Biso 1.000000     N
    N   1.0     0.376312     0.230350     0.730145  Biso 1.000000     N
    N   1.0     0.376311     0.730345     0.730146  Biso 1.000000     N
    N   1.0     0.876305     0.230348     0.730149  Biso 1.000000     N
    N   1.0     0.876303     0.730342     0.730149  Biso 1.000000     N
    N   1.0     0.269615     0.376318     0.230152  Biso 1.000000     N
    N   1.0     0.269612     0.876309     0.230157  Biso 1.000000     N
    N   1.0     0.769609     0.376317     0.230157  Biso 1.000000     N
    N   1.0     0.769606     0.876310     0.230157  Biso 1.000000     N
    N   1.0     0.230365     0.123667     0.230105  Biso 1.000000     N
    N   1.0     0.230367     0.623660     0.230103  Biso 1.000000     N
    N   1.0     0.730360     0.123668     0.230106  Biso 1.000000     N
    N   1.0     0.730359     0.623661     0.230104  Biso 1.000000     N
    N   1.0     0.123678     0.230370     0.230104  Biso 1.000000     N
    N   1.0     0.123677     0.730362     0.230106  Biso 1.000000     N
    N   1.0     0.623672     0.230371     0.230106  Biso 1.000000     N
    N   1.0     0.623670     0.730363     0.230105  Biso 1.000000     N
    N   1.0     0.376309     0.269610     0.230152  Biso 1.000000     N
    N   1.0     0.376307     0.769600     0.230154  Biso 1.000000     N
    N   1.0     0.876301     0.269608     0.230154  Biso 1.000000     N
    N   1.0     0.876299     0.769600     0.230155  Biso 1.000000     N
    N   1.0     0.269648     0.123655     0.730112  Biso 1.000000     N
    N   1.0     0.269646     0.623648     0.730117  Biso 1.000000     N
    N   1.0     0.769637     0.123655     0.730116  Biso 1.000000     N
    N   1.0     0.769637     0.623648     0.730116  Biso 1.000000     N
    N   1.0     0.230349     0.376321     0.730146  Biso 1.000000     N
    N   1.0     0.230350     0.876312     0.730146  Biso 1.000000     N
    N   1.0     0.730341     0.376320     0.730148  Biso 1.000000     N
    N   1.0     0.730342     0.876312     0.730148  Biso 1.000000     N
    N   1.0     0.376331     0.230353     0.269897  Biso 1.000000     N
    N   1.0     0.376329     0.730343     0.269899  Biso 1.000000     N
    N   1.0     0.876324     0.230354     0.269900  Biso 1.000000     N
    N   1.0     0.876322     0.730345     0.269901  Biso 1.000000     N
    N   1.0     0.123686     0.269645     0.269866  Biso 1.000000     N
    N   1.0     0.123684     0.769637     0.269869  Biso 1.000000     N
    N   1.0     0.623679     0.269644     0.269870  Biso 1.000000     N
    N   1.0     0.623677     0.769636     0.269869  Biso 1.000000     N
    N   1.0     0.230385     0.123677     0.769858  Biso 1.000000     N
    N   1.0     0.230381     0.623670     0.769861  Biso 1.000000     N
    N   1.0     0.730378     0.123678     0.769864  Biso 1.000000     N
    N   1.0     0.730375     0.623669     0.769861  Biso 1.000000     N
    N   1.0     0.269630     0.376326     0.769909  Biso 1.000000     N
    N   1.0     0.269631     0.876319     0.769910  Biso 1.000000     N
    N   1.0     0.769624     0.376327     0.769910  Biso 1.000000     N
    N   1.0     0.769623     0.876319     0.769911  Biso 1.000000     N
    O   1.0     0.284774     0.284774     0.866542  Biso 1.000000     O
    O   1.0     0.284770     0.784769     0.866544  Biso 1.000000     O
    O   1.0     0.784765     0.284777     0.866544  Biso 1.000000     O
    O   1.0     0.784766     0.784766     0.866544  Biso 1.000000     O
    O   1.0     0.215234     0.215223     0.866508  Biso 1.000000     O
    O   1.0     0.215231     0.715218     0.866511  Biso 1.000000     O
    O   1.0     0.715226     0.215226     0.866511  Biso 1.000000     O
    O   1.0     0.715226     0.715215     0.866511  Biso 1.000000     O
    O   1.0     0.215225     0.284794     0.366518  Biso 1.000000     O
    O   1.0     0.215222     0.784783     0.366521  Biso 1.000000     O
    O   1.0     0.715217     0.284792     0.366520  Biso 1.000000     O
    O   1.0     0.715217     0.784785     0.366520  Biso 1.000000     O
    O   1.0     0.284789     0.215218     0.366518  Biso 1.000000     O
    O   1.0     0.284787     0.715208     0.366520  Biso 1.000000     O
    O   1.0     0.784780     0.215216     0.366520  Biso 1.000000     O
    O   1.0     0.784781     0.715210     0.366520  Biso 1.000000     O
    O   1.0     0.215208     0.284778     0.633495  Biso 1.000000     O
    O   1.0     0.215208     0.784770     0.633497  Biso 1.000000     O
    O   1.0     0.715203     0.284779     0.633497  Biso 1.000000     O
    O   1.0     0.715200     0.784769     0.633497  Biso 1.000000     O
    O   1.0     0.284772     0.215203     0.633494  Biso 1.000000     O
    O   1.0     0.284772     0.715195     0.633497  Biso 1.000000     O
    O   1.0     0.784767     0.215203     0.633497  Biso 1.000000     O
    O   1.0     0.784764     0.715194     0.633497  Biso 1.000000     O
    O   1.0     0.284763     0.284771     0.133504  Biso 1.000000     O
    O   1.0     0.284765     0.784761     0.133506  Biso 1.000000     O
    O   1.0     0.784758     0.284770     0.133506  Biso 1.000000     O
    O   1.0     0.784755     0.784764     0.133506  Biso 1.000000     O
    O   1.0     0.215223     0.215220     0.133471  Biso 1.000000     O
    O   1.0     0.215225     0.715210     0.133473  Biso 1.000000     O
    O   1.0     0.715219     0.215218     0.133473  Biso 1.000000     O
    O   1.0     0.715215     0.715213     0.133472  Biso 1.000000     O
    O   1.0     0.249995     0.249993     0.750012  Biso 1.000000     O
    O   1.0     0.249994     0.749985     0.750017  Biso 1.000000     O
    O   1.0     0.749988     0.249993     0.750017  Biso 1.000000     O
    O   1.0     0.749987     0.749986     0.750016  Biso 1.000000     O
    O   1.0     0.250002     0.250001     0.249997  Biso 1.000000     O
    O   1.0     0.250001     0.749994     0.250002  Biso 1.000000     O
    O   1.0     0.749996     0.250002     0.250001  Biso 1.000000     O
    O   1.0     0.749994     0.749993     0.250001  Biso 1.000000     O
   Zn   1.0     0.299910     0.299913     0.791655  Biso 1.000000    Zn
   Zn   1.0     0.299908     0.799907     0.791658  Biso 1.000000    Zn
   Zn   1.0     0.799902     0.299914     0.791658  Biso 1.000000    Zn
   Zn   1.0     0.799902     0.799906     0.791658  Biso 1.000000    Zn
   Zn   1.0     0.200097     0.200087     0.791607  Biso 1.000000    Zn
   Zn   1.0     0.200094     0.700080     0.791610  Biso 1.000000    Zn
   Zn   1.0     0.700089     0.200088     0.791611  Biso 1.000000    Zn
   Zn   1.0     0.700088     0.700079     0.791610  Biso 1.000000    Zn
   Zn   1.0     0.200092     0.299930     0.291621  Biso 1.000000    Zn
   Zn   1.0     0.200089     0.799922     0.291625  Biso 1.000000    Zn
   Zn   1.0     0.700084     0.299930     0.291625  Biso 1.000000    Zn
   Zn   1.0     0.700083     0.799922     0.291625  Biso 1.000000    Zn
   Zn   1.0     0.299925     0.200084     0.291621  Biso 1.000000    Zn
   Zn   1.0     0.299923     0.700075     0.291624  Biso 1.000000    Zn
   Zn   1.0     0.799917     0.200083     0.291624  Biso 1.000000    Zn
   Zn   1.0     0.799916     0.700075     0.291624  Biso 1.000000    Zn
   Zn   1.0     0.200073     0.299912     0.708391  Biso 1.000000    Zn
   Zn   1.0     0.200072     0.799903     0.708393  Biso 1.000000    Zn
   Zn   1.0     0.700066     0.299911     0.708393  Biso 1.000000    Zn
   Zn   1.0     0.700065     0.799903     0.708393  Biso 1.000000    Zn
   Zn   1.0     0.299907     0.200065     0.708389  Biso 1.000000    Zn
   Zn   1.0     0.299905     0.700057     0.708393  Biso 1.000000    Zn
   Zn   1.0     0.799899     0.200065     0.708393  Biso 1.000000    Zn
   Zn   1.0     0.799898     0.700057     0.708393  Biso 1.000000    Zn
   Zn   1.0     0.299902     0.299908     0.208404  Biso 1.000000    Zn
   Zn   1.0     0.299900     0.799900     0.208408  Biso 1.000000    Zn
   Zn   1.0     0.799895     0.299907     0.208407  Biso 1.000000    Zn
   Zn   1.0     0.799893     0.799900     0.208408  Biso 1.000000    Zn
   Zn   1.0     0.200087     0.200080     0.208356  Biso 1.000000    Zn
   Zn   1.0     0.200087     0.700073     0.208359  Biso 1.000000    Zn
   Zn   1.0     0.700081     0.200081     0.208359  Biso 1.000000    Zn
   Zn   1.0     0.700079     0.700073     0.208359  Biso 1.000000    Zn
