#======================================================================

# CRYSTAL DATA

#----------------------------------------------------------------------

data_VESTA_phase_1


_pd_phase_name                         MOF
_cell_length_a                         15.48200
_cell_length_b                         15.96200
_cell_length_c                         15.94800
_cell_angle_alpha                      76.59300
_cell_angle_beta                       61.25100
_cell_angle_gamma                      61.15600
_symmetry_space_group_name_H-M         "P 1"
_symmetry_Int_Tables_number            1

loop_
_symmetry_equiv_pos_as_xyz
   "x, y, z"

loop_
   _atom_site_label
   _atom_site_occupancy
   _atom_site_fract_x
   _atom_site_fract_y
   _atom_site_fract_z
   _atom_site_adp_type
   _atom_site_B_iso_or_equiv
   _atom_site_type_symbol
    H   1.0     0.270616     0.162260     0.051159  Biso 1.000000     H
    H   1.0     0.184650     0.340418     0.053790  Biso 1.000000     H
    H   1.0     0.481499     0.838991     0.948582  Biso 1.000000     H
    H   1.0     0.576858     0.661006     0.945856  Biso 1.000000     H
    H   1.0     0.321273     0.949104     0.162504  Biso 1.000000     H
    H   1.0     0.238014     0.946314     0.340676  Biso 1.000000     H
    H   1.0     0.430106     0.051651     0.839234  Biso 1.000000     H
    H   1.0     0.522762     0.054249     0.661280  Biso 1.000000     H
    H   1.0     0.018538     0.051494     0.160796  Biso 1.000000     H
    H   1.0     0.923232     0.054133     0.338743  Biso 1.000000     H
    H   1.0     0.229505     0.948898     0.837496  Biso 1.000000     H
    H   1.0     0.315511     0.946171     0.659318  Biso 1.000000     H
    H   1.0     0.069614     0.161008     0.948340  Biso 1.000000     H
    H   1.0    -0.023034     0.339001     0.945632  Biso 1.000000     H
    H   1.0     0.178739     0.837761     0.050910  Biso 1.000000     H
    H   1.0     0.262061     0.659616     0.053597  Biso 1.000000     H
    H   1.0     0.729386     0.837766     0.948806  Biso 1.000000     H
    H   1.0     0.815390     0.659609     0.946122  Biso 1.000000     H
    H   1.0     0.518478     0.161027     0.051407  Biso 1.000000     H
    H   1.0     0.423120     0.339012     0.054108  Biso 1.000000     H
    H   1.0     0.678705     0.050905     0.837493  Biso 1.000000     H
    H   1.0     0.761969     0.053654     0.659321  Biso 1.000000     H
    H   1.0     0.569880     0.948361     0.160761  Biso 1.000000     H
    H   1.0     0.477241     0.945738     0.338714  Biso 1.000000     H
    H   1.0     0.981439     0.948519     0.839199  Biso 1.000000     H
    H   1.0     0.076751     0.945840     0.661252  Biso 1.000000     H
    H   1.0     0.770488     0.051103     0.162505  Biso 1.000000     H
    H   1.0     0.684499     0.053804     0.340683  Biso 1.000000     H
    H   1.0     0.930375     0.839010     0.051644  Biso 1.000000     H
    H   1.0     0.000000     0.661016     0.054302  Biso 1.000000     H
    H   1.0     0.821236     0.162261     0.949081  Biso 1.000000     H
    H   1.0     0.737916     0.340406     0.946368  Biso 1.000000     H
    C   1.0     0.204780     0.204014     0.028937  Biso 1.000000     C
    C   1.0     0.157008     0.303268     0.029951  Biso 1.000000     C
    C   1.0     0.435825     0.796687     0.970708  Biso 1.000000     C
    C   1.0     0.488641     0.697484     0.969644  Biso 1.000000     C
    C   1.0     0.233460     0.971206     0.204163  Biso 1.000000     C
    C   1.0     0.186752     0.970118     0.303420  Biso 1.000000     C
    C   1.0     0.406528     0.029406     0.796823  Biso 1.000000     C
    C   1.0     0.458288     0.030398     0.697632  Biso 1.000000     C
    C   1.0     0.064232     0.029332     0.203197  Biso 1.000000     C
    C   1.0     0.011449     0.030335     0.302387  Biso 1.000000     C
    C   1.0     0.295265     0.971075     0.795840  Biso 1.000000     C
    C   1.0     0.343044     0.970030     0.696582  Biso 1.000000     C
    C   1.0     0.093280     0.203325     0.970560  Biso 1.000000     C
    C   1.0     0.041515     0.302527     0.969530  Biso 1.000000     C
    C   1.0     0.266578     0.796005     0.028805  Biso 1.000000     C
    C   1.0     0.313323     0.696752     0.029827  Biso 1.000000     C
    C   1.0     0.795229     0.796010     0.971018  Biso 1.000000     C
    C   1.0     0.843020     0.696756     0.969978  Biso 1.000000     C
    C   1.0     0.564152     0.203332     0.029278  Biso 1.000000     C
    C   1.0     0.511337     0.302535     0.030323  Biso 1.000000     C
    C   1.0     0.766520     0.028791     0.795833  Biso 1.000000     C
    C   1.0     0.813229     0.029865     0.696577  Biso 1.000000     C
    C   1.0     0.593460     0.970601     0.203172  Biso 1.000000     C
    C   1.0     0.541716     0.969587     0.302363  Biso 1.000000     C
    C   1.0     0.935747     0.970668     0.796799  Biso 1.000000     C
    C   1.0     0.988532     0.969650     0.697608  Biso 1.000000     C
    C   1.0     0.704727     0.028925     0.204159  Biso 1.000000     C
    C   1.0     0.656965     0.029949     0.303417  Biso 1.000000     C
    C   1.0     0.906722     0.796695     0.029407  Biso 1.000000     C
    C   1.0     0.958505     0.697492     0.030412  Biso 1.000000     C
    C   1.0     0.733397     0.204016     0.971181  Biso 1.000000     C
    C   1.0     0.686654     0.303270     0.970141  Biso 1.000000     C
    C   1.0     0.073035     0.355128    -0.000218  Biso 1.000000     C
    C   1.0     0.022072     0.456385    -0.000096  Biso 1.000000     C
    C   1.0     0.427173     0.644888    -0.000193  Biso 1.000000     C
    C   1.0     0.478016     0.543628    -0.000079  Biso 1.000000     C
    C   1.0     0.072922     0.000154     0.355126  Biso 1.000000     C
    C   1.0     0.022055     0.000012     0.456379  Biso 1.000000     C
    C   1.0     0.426923     0.000133     0.644873  Biso 1.000000     C
    C   1.0     0.477914     0.000014     0.543619  Biso 1.000000     C
    C   1.0     0.927007     0.644887     0.000152  Biso 1.000000     C
    C   1.0     0.977980     0.543630     0.000016  Biso 1.000000     C
    C   1.0     0.572810     0.355125     0.000171  Biso 1.000000     C
    C   1.0     0.521968     0.456384     0.000047  Biso 1.000000     C
    C   1.0     0.927059    -0.000191     0.644870  Biso 1.000000     C
    C   1.0     0.977927    -0.000057     0.543617  Biso 1.000000     C
    C   1.0     0.573079    -0.000155     0.355125  Biso 1.000000     C
    C   1.0     0.522097    -0.000048     0.456379  Biso 1.000000     C
    N   1.0     0.173636     0.154445    -0.000167  Biso 1.000000     N
    N   1.0     0.326510     0.845599    -0.000177  Biso 1.000000     N
    N   1.0     0.173527     0.000223     0.154422  Biso 1.000000     N
    N   1.0     0.326280     0.000194     0.845548  Biso 1.000000     N
    N   1.0     0.826362     0.845569     0.000161  Biso 1.000000     N
    N   1.0     0.673473     0.154413     0.000181  Biso 1.000000     N
    N   1.0     0.826447    -0.000211     0.845574  Biso 1.000000     N
    N   1.0     0.673706    -0.000192     0.154449  Biso 1.000000     N
    F   1.0     0.113532     0.000010     0.000007  Biso 1.000000     F
    F   1.0     0.386453    -0.000083     0.000106  Biso 1.000000     F
    F   1.0     0.886462    -0.000006    -0.000004  Biso 1.000000     F
    F   1.0     0.613541     0.000085    -0.000103  Biso 1.000000     F
    F   1.0     0.000000     0.908582     0.080072  Biso 1.000000     F
    F   1.0    -0.005799     0.091433     0.919919  Biso 1.000000     F
    F   1.0     0.085224     0.919912     0.908597  Biso 1.000000     F
    F   1.0     0.914763     0.080102     0.091398  Biso 1.000000     F
    F   1.0     0.505210     0.080148     0.908647  Biso 1.000000     F
    F   1.0     0.494783     0.919867     0.091340  Biso 1.000000     F
    F   1.0     0.585203     0.908662     0.919838  Biso 1.000000     F
    F   1.0     0.414784     0.091356     0.080149  Biso 1.000000     F
   Si   1.0     0.000006     0.000002     0.000003  Biso 1.000000    Si
   Si   1.0     0.499996     0.000002     0.000002  Biso 1.000000    Si
   Zn   1.0     0.249994    -0.000023     0.000039  Biso 1.000000    Zn
   Zn   1.0     0.749987     0.000034    -0.000026  Biso 1.000000    Zn
