#======================================================================

# CRYSTAL DATA

#----------------------------------------------------------------------

data_VESTA_phase_1


_pd_phase_name                         MOF
_cell_length_a                         9.97700
_cell_length_b                         16.51000
_cell_length_c                         12.13000
_cell_angle_alpha                      89.99200
_cell_angle_beta                       89.99500
_cell_angle_gamma                      91.97200
_symmetry_space_group_name_H-M         "P 1"
_symmetry_Int_Tables_number            1

loop_
_symmetry_equiv_pos_as_xyz
   "x, y, z"

loop_
   _atom_site_label
   _atom_site_occupancy
   _atom_site_fract_x
   _atom_site_fract_y
   _atom_site_fract_z
   _atom_site_adp_type
   _atom_site_B_iso_or_equiv
   _atom_site_type_symbol
    H   1.0     0.478894     0.280837     0.380872  Biso 1.000000     H
    H   1.0     0.478899     0.780836     0.380874  Biso 1.000000     H
    H   1.0     0.978873     0.280837     0.380872  Biso 1.000000     H
    H   1.0     0.978878     0.780836     0.380874  Biso 1.000000     H
    H   1.0     0.351094     0.269994     0.481084  Biso 1.000000     H
    H   1.0     0.351104     0.769993     0.481083  Biso 1.000000     H
    H   1.0     0.851074     0.269994     0.481084  Biso 1.000000     H
    H   1.0     0.851083     0.769993     0.481083  Biso 1.000000     H
    H   1.0     0.021109     0.219196     0.880871  Biso 1.000000     H
    H   1.0     0.021117     0.719198     0.880873  Biso 1.000000     H
    H   1.0     0.521088     0.219196     0.880871  Biso 1.000000     H
    H   1.0     0.521096     0.719198     0.880873  Biso 1.000000     H
    H   1.0     0.148892     0.230013     0.981081  Biso 1.000000     H
    H   1.0     0.148896     0.730014     0.981080  Biso 1.000000     H
    H   1.0     0.648871     0.230013     0.981081  Biso 1.000000     H
    H   1.0     0.648875     0.730014     0.981080  Biso 1.000000     H
    H   1.0     0.021089     0.219161     0.619140  Biso 1.000000     H
    H   1.0     0.021097     0.719163     0.619138  Biso 1.000000     H
    H   1.0     0.521068     0.219161     0.619140  Biso 1.000000     H
    H   1.0     0.521076     0.719163     0.619139  Biso 1.000000     H
    H   1.0     0.148888     0.230004     0.518929  Biso 1.000000     H
    H   1.0     0.148892     0.730006     0.518930  Biso 1.000000     H
    H   1.0     0.648868     0.230004     0.518929  Biso 1.000000     H
    H   1.0     0.648871     0.730006     0.518930  Biso 1.000000     H
    H   1.0     0.478874     0.280802     0.119141  Biso 1.000000     H
    H   1.0     0.478879     0.780801     0.119139  Biso 1.000000     H
    H   1.0     0.978853     0.280802     0.119141  Biso 1.000000     H
    H   1.0     0.978859     0.780801     0.119139  Biso 1.000000     H
    H   1.0     0.351091     0.269985     0.018932  Biso 1.000000     H
    H   1.0     0.351100     0.769985     0.018933  Biso 1.000000     H
    H   1.0     0.851070     0.269985     0.018932  Biso 1.000000     H
    H   1.0     0.851079     0.769985     0.018933  Biso 1.000000     H
    C   1.0     0.459308     0.281803     0.470074  Biso 1.000000     C
    C   1.0     0.459317     0.781806     0.470076  Biso 1.000000     C
    C   1.0     0.959287     0.281803     0.470074  Biso 1.000000     C
    C   1.0     0.959297     0.781806     0.470076  Biso 1.000000     C
    C   1.0     0.040681     0.218204     0.970072  Biso 1.000000     C
    C   1.0     0.040685     0.718203     0.970074  Biso 1.000000     C
    C   1.0     0.540660     0.218204     0.970072  Biso 1.000000     C
    C   1.0     0.540664     0.718203     0.970074  Biso 1.000000     C
    C   1.0     0.040674     0.218195     0.529939  Biso 1.000000     C
    C   1.0     0.040679     0.718193     0.529936  Biso 1.000000     C
    C   1.0     0.540654     0.218195     0.529939  Biso 1.000000     C
    C   1.0     0.540658     0.718193     0.529937  Biso 1.000000     C
    C   1.0     0.459302     0.281794     0.029941  Biso 1.000000     C
    C   1.0     0.459311     0.781796     0.029939  Biso 1.000000     C
    C   1.0     0.959281     0.281794     0.029941  Biso 1.000000     C
    C   1.0     0.959290     0.781796     0.029939  Biso 1.000000     C
    O   1.0     0.472872     0.381725     0.644770  Biso 1.000000     O
    O   1.0     0.472878     0.881724     0.644770  Biso 1.000000     O
    O   1.0     0.972851     0.381725     0.644770  Biso 1.000000     O
    O   1.0     0.972858     0.881724     0.644770  Biso 1.000000     O
    O   1.0     0.396606     0.439995     0.458537  Biso 1.000000     O
    O   1.0     0.396611     0.939996     0.458536  Biso 1.000000     O
    O   1.0     0.896585     0.439995     0.458537  Biso 1.000000     O
    O   1.0     0.896591     0.939996     0.458536  Biso 1.000000     O
    O   1.0     0.141321     0.404937     0.489555  Biso 1.000000     O
    O   1.0     0.141328     0.904936     0.489555  Biso 1.000000     O
    O   1.0     0.641300     0.404937     0.489555  Biso 1.000000     O
    O   1.0     0.641307     0.904936     0.489555  Biso 1.000000     O
    O   1.0     0.027086     0.118256     0.144752  Biso 1.000000     O
    O   1.0     0.027093     0.618258     0.144753  Biso 1.000000     O
    O   1.0     0.527065     0.118256     0.144752  Biso 1.000000     O
    O   1.0     0.527072     0.618258     0.144753  Biso 1.000000     O
    O   1.0     0.103402     0.060015     0.958540  Biso 1.000000     O
    O   1.0     0.103410     0.560015     0.958539  Biso 1.000000     O
    O   1.0     0.603381     0.060015     0.958540  Biso 1.000000     O
    O   1.0     0.603389     0.560015     0.958539  Biso 1.000000     O
    O   1.0     0.358678     0.095057     0.989540  Biso 1.000000     O
    O   1.0     0.358685     0.595058     0.989540  Biso 1.000000     O
    O   1.0     0.858657     0.095057     0.989540  Biso 1.000000     O
    O   1.0     0.858664     0.595058     0.989540  Biso 1.000000     O
    O   1.0     0.027111     0.118273     0.355242  Biso 1.000000     O
    O   1.0     0.027118     0.618275     0.355242  Biso 1.000000     O
    O   1.0     0.527090     0.118273     0.355242  Biso 1.000000     O
    O   1.0     0.527097     0.618275     0.355242  Biso 1.000000     O
    O   1.0     0.103377     0.060003     0.541476  Biso 1.000000     O
    O   1.0     0.103385     0.560003     0.541477  Biso 1.000000     O
    O   1.0     0.603356     0.060003     0.541476  Biso 1.000000     O
    O   1.0     0.603364     0.560003     0.541477  Biso 1.000000     O
    O   1.0     0.358662     0.095061     0.510457  Biso 1.000000     O
    O   1.0     0.358668     0.595063     0.510458  Biso 1.000000     O
    O   1.0     0.858641     0.095062     0.510457  Biso 1.000000     O
    O   1.0     0.858647     0.595063     0.510458  Biso 1.000000     O
    O   1.0     0.472897     0.381742     0.855260  Biso 1.000000     O
    O   1.0     0.472903     0.881741     0.855260  Biso 1.000000     O
    O   1.0     0.972876     0.381742     0.855260  Biso 1.000000     O
    O   1.0     0.972882     0.881741     0.855260  Biso 1.000000     O
    O   1.0     0.396581     0.439983     0.041473  Biso 1.000000     O
    O   1.0     0.396587     0.939984     0.041474  Biso 1.000000     O
    O   1.0     0.896560     0.439983     0.041473  Biso 1.000000     O
    O   1.0     0.896566     0.939984     0.041474  Biso 1.000000     O
    O   1.0     0.141305     0.404941     0.010472  Biso 1.000000     O
    O   1.0     0.141312     0.904941     0.010473  Biso 1.000000     O
    O   1.0     0.641284     0.404941     0.010472  Biso 1.000000     O
    O   1.0     0.641291     0.904941     0.010473  Biso 1.000000     O
    F   1.0     0.278439     0.476290     0.652822  Biso 1.000000     F
    F   1.0     0.278446     0.976291     0.652823  Biso 1.000000     F
    F   1.0     0.778418     0.476290     0.652823  Biso 1.000000     F
    F   1.0     0.778425     0.976291     0.652823  Biso 1.000000     F
    F   1.0     0.221540     0.023705     0.152815  Biso 1.000000     F
    F   1.0     0.221547     0.523706     0.152816  Biso 1.000000     F
    F   1.0     0.721519     0.023705     0.152815  Biso 1.000000     F
    F   1.0     0.721526     0.523706     0.152816  Biso 1.000000     F
    F   1.0     0.221544     0.023708     0.347190  Biso 1.000000     F
    F   1.0     0.221551     0.523708     0.347189  Biso 1.000000     F
    F   1.0     0.721523     0.023708     0.347190  Biso 1.000000     F
    F   1.0     0.721529     0.523708     0.347189  Biso 1.000000     F
    F   1.0     0.278443     0.476293     0.847198  Biso 1.000000     F
    F   1.0     0.278450     0.976293     0.847197  Biso 1.000000     F
    F   1.0     0.778422     0.476293     0.847198  Biso 1.000000     F
    F   1.0     0.778429     0.976293     0.847197  Biso 1.000000     F
   Al   1.0     0.249987    -0.000001     0.500007  Biso 1.000000    Al
   Al   1.0     0.249995     0.499999     0.500006  Biso 1.000000    Al
   Al   1.0     0.749967    -0.000001     0.500007  Biso 1.000000    Al
   Al   1.0     0.749975     0.499999     0.500006  Biso 1.000000    Al
   Al   1.0     0.249989    -0.000000    -0.000000  Biso 1.000000    Al
   Al   1.0     0.249997     0.500001     0.000000  Biso 1.000000    Al
   Al   1.0     0.749968    -0.000000    -0.000000  Biso 1.000000    Al
   Al   1.0     0.749976     0.500001     0.000000  Biso 1.000000    Al
   Al   1.0     0.382419     0.429019     0.750012  Biso 1.000000    Al
   Al   1.0     0.382427     0.929019     0.750012  Biso 1.000000    Al
   Al   1.0     0.882398     0.429019     0.750012  Biso 1.000000    Al
   Al   1.0     0.882406     0.929019     0.750012  Biso 1.000000    Al
   Al   1.0     0.117564     0.070979     0.250000  Biso 1.000000    Al
   Al   1.0     0.117570     0.570980     0.250000  Biso 1.000000    Al
   Al   1.0     0.617543     0.070979     0.250000  Biso 1.000000    Al
   Al   1.0     0.617549     0.570980     0.250000  Biso 1.000000    Al
    P   1.0     0.494176     0.384259     0.516257  Biso 1.000000     P
    P   1.0     0.494183     0.884262     0.516258  Biso 1.000000     P
    P   1.0     0.994155     0.384259     0.516257  Biso 1.000000     P
    P   1.0     0.994162     0.884262     0.516258  Biso 1.000000     P
    P   1.0     0.005814     0.115740     0.016239  Biso 1.000000     P
    P   1.0     0.005820     0.615738     0.016239  Biso 1.000000     P
    P   1.0     0.505793     0.115740     0.016239  Biso 1.000000     P
    P   1.0     0.505799     0.615738     0.016239  Biso 1.000000     P
    P   1.0     0.005807     0.115739     0.483755  Biso 1.000000     P
    P   1.0     0.005814     0.615737     0.483755  Biso 1.000000     P
    P   1.0     0.505786     0.115739     0.483756  Biso 1.000000     P
    P   1.0     0.505793     0.615737     0.483755  Biso 1.000000     P
    P   1.0     0.494169     0.384258     0.983774  Biso 1.000000     P
    P   1.0     0.494176     0.884261     0.983773  Biso 1.000000     P
    P   1.0     0.994148     0.384258     0.983774  Biso 1.000000     P
    P   1.0     0.994155     0.884261     0.983773  Biso 1.000000     P
