#======================================================================

# CRYSTAL DATA

#----------------------------------------------------------------------

data_VESTA_phase_1


_pd_phase_name                         MOF
_cell_length_a                         15.63600
_cell_length_b                         16.19400
_cell_length_c                         23.64100
_cell_angle_alpha                      90.03700
_cell_angle_beta                       89.98000
_cell_angle_gamma                      118.76400
_symmetry_space_group_name_H-M         "P 1"
_symmetry_Int_Tables_number            1

loop_
_symmetry_equiv_pos_as_xyz
   "x, y, z"

loop_
   _atom_site_label
   _atom_site_occupancy
   _atom_site_fract_x
   _atom_site_fract_y
   _atom_site_fract_z
   _atom_site_adp_type
   _atom_site_B_iso_or_equiv
   _atom_site_type_symbol
    H   1.0     0.649402     0.753591     0.629072  Biso 1.000000     H
    H   1.0     0.769268     0.843710     0.704706  Biso 1.000000     H
    H   1.0     0.877870     0.644553     0.699096  Biso 1.000000     H
    H   1.0     0.757201     0.554826     0.623830  Biso 1.000000     H
    H   1.0     0.958015     0.912916     0.658721  Biso 1.000000     H
    H   1.0     0.350708     0.246324     0.628888  Biso 1.000000     H
    H   1.0     0.230873     0.156120     0.704488  Biso 1.000000     H
    H   1.0     0.122020     0.355084     0.699113  Biso 1.000000     H
    H   1.0     0.242673     0.444907     0.623886  Biso 1.000000     H
    H   1.0     0.042189     0.086560     0.658680  Biso 1.000000     H
    H   1.0     0.103920     0.753308     0.870836  Biso 1.000000     H
    H   1.0     0.074177     0.843426     0.795140  Biso 1.000000     H
    H   1.0     0.766910     0.644716     0.800611  Biso 1.000000     H
    H   1.0     0.797831     0.555140     0.876056  Biso 1.000000     H
    H   1.0     0.955214     0.913213     0.840967  Biso 1.000000     H
    H   1.0     0.896091     0.246594     0.870753  Biso 1.000000     H
    H   1.0     0.925877     0.156398     0.795027  Biso 1.000000     H
    H   1.0     0.233147     0.355071     0.800584  Biso 1.000000     H
    H   1.0     0.202189     0.444729     0.876059  Biso 1.000000     H
    H   1.0     0.044988     0.086816     0.840927  Biso 1.000000     H
    H   1.0     0.351238     0.247180     0.370511  Biso 1.000000     H
    H   1.0     0.231108     0.156781     0.295039  Biso 1.000000     H
    H   1.0     0.121392     0.355035     0.301224  Biso 1.000000     H
    H   1.0     0.241867     0.444680     0.376615  Biso 1.000000     H
    H   1.0     0.041958     0.087130     0.341329  Biso 1.000000     H
    H   1.0     0.648651     0.752991     0.370718  Biso 1.000000     H
    H   1.0     0.768761     0.843467     0.295283  Biso 1.000000     H
    H   1.0     0.878694     0.645380     0.301239  Biso 1.000000     H
    H   1.0     0.758227     0.555651     0.376588  Biso 1.000000     H
    H   1.0     0.957879     0.913474     0.341380  Biso 1.000000     H
    H   1.0     0.896019     0.246701     0.129133  Biso 1.000000     H
    H   1.0     0.925701     0.156553     0.204837  Biso 1.000000     H
    H   1.0     0.232950     0.355354     0.199515  Biso 1.000000     H
    H   1.0     0.202100     0.444942     0.124044  Biso 1.000000     H
    H   1.0     0.044686     0.086802     0.159084  Biso 1.000000     H
    H   1.0     0.103938     0.753461     0.129216  Biso 1.000000     H
    H   1.0     0.074223     0.843682     0.204960  Biso 1.000000     H
    H   1.0     0.766975     0.644894     0.199580  Biso 1.000000     H
    H   1.0     0.797857     0.555234     0.124071  Biso 1.000000     H
    H   1.0     0.955045     0.913192     0.159134  Biso 1.000000     H
    C   1.0     0.623907     0.594480     0.576747  Biso 1.000000     C
    C   1.0     0.695635     0.648488     0.621686  Biso 1.000000     C
    C   1.0     0.700047     0.730508     0.644546  Biso 1.000000     C
    C   1.0     0.766805     0.780610     0.686792  Biso 1.000000     C
    C   1.0     0.831393     0.749917     0.706971  Biso 1.000000     C
    C   1.0     0.827419     0.668069     0.683869  Biso 1.000000     C
    C   1.0     0.760089     0.617925     0.641984  Biso 1.000000     C
    C   1.0     0.976407     0.950863     0.698769  Biso 1.000000     C
    C   1.0     0.376085     0.405412     0.576713  Biso 1.000000     C
    C   1.0     0.304373     0.351356     0.621632  Biso 1.000000     C
    C   1.0     0.300013     0.269345     0.644404  Biso 1.000000     C
    C   1.0     0.233275     0.219198     0.686636  Biso 1.000000     C
    C   1.0     0.168630     0.249818     0.706876  Biso 1.000000     C
    C   1.0     0.172525     0.331634     0.683843  Biso 1.000000     C
    C   1.0     0.239838     0.381827     0.641976  Biso 1.000000     C
    C   1.0     0.023804     0.048739     0.698745  Biso 1.000000     C
    C   1.0     0.970589     0.594639     0.923255  Biso 1.000000     C
    C   1.0     0.952809     0.648524     0.878223  Biso 1.000000     C
    C   1.0     0.030305     0.730339     0.855321  Biso 1.000000     C
    C   1.0     0.013650     0.780427     0.813033  Biso 1.000000     C
    C   1.0     0.918494     0.749864     0.792798  Biso 1.000000     C
    C   1.0     0.840759     0.668172     0.815905  Biso 1.000000     C
    C   1.0     0.857934     0.618092     0.857880  Biso 1.000000     C
    C   1.0     0.974768     0.951025     0.800899  Biso 1.000000     C
    C   1.0     0.029414     0.405264     0.923256  Biso 1.000000     C
    C   1.0     0.047202     0.351372     0.878174  Biso 1.000000     C
    C   1.0     0.969718     0.269524     0.855259  Biso 1.000000     C
    C   1.0     0.986392     0.219416     0.812940  Biso 1.000000     C
    C   1.0     0.081568     0.249923     0.792745  Biso 1.000000     C
    C   1.0     0.159288     0.331650     0.815862  Biso 1.000000     C
    C   1.0     0.142098     0.381754     0.857867  Biso 1.000000     C
    C   1.0     0.025436     0.048883     0.800877  Biso 1.000000     C
    C   1.0     0.375927     0.405660     0.423264  Biso 1.000000     C
    C   1.0     0.304223     0.351661     0.378311  Biso 1.000000     C
    C   1.0     0.300231     0.269950     0.355236  Biso 1.000000     C
    C   1.0     0.233373     0.219730     0.313059  Biso 1.000000     C
    C   1.0     0.168441     0.250131     0.293078  Biso 1.000000     C
    C   1.0     0.172066     0.331723     0.316346  Biso 1.000000     C
    C   1.0     0.239307     0.381840     0.358277  Biso 1.000000     C
    C   1.0     0.023573     0.049172     0.301285  Biso 1.000000     C
    C   1.0     0.623999     0.594488     0.423292  Biso 1.000000     C
    C   1.0     0.695752     0.648571     0.378392  Biso 1.000000     C
    C   1.0     0.699699     0.730272     0.355400  Biso 1.000000     C
    C   1.0     0.766552     0.780540     0.313244  Biso 1.000000     C
    C   1.0     0.831525     0.750195     0.293197  Biso 1.000000     C
    C   1.0     0.827977     0.668641     0.316404  Biso 1.000000     C
    C   1.0     0.760737     0.618473     0.358311  Biso 1.000000     C
    C   1.0     0.976232     0.951295     0.301314  Biso 1.000000     C
    C   1.0     0.029381     0.405387     0.076757  Biso 1.000000     C
    C   1.0     0.047127     0.351529     0.121817  Biso 1.000000     C
    C   1.0     0.969619     0.269671     0.144673  Biso 1.000000     C
    C   1.0     0.986234     0.219582     0.186975  Biso 1.000000     C
    C   1.0     0.081373     0.250147     0.207240  Biso 1.000000     C
    C   1.0     0.159117     0.331896     0.184191  Biso 1.000000     C
    C   1.0     0.141985     0.381966     0.142192  Biso 1.000000     C
    C   1.0     0.025172     0.048994     0.199152  Biso 1.000000     C
    C   1.0     0.970588     0.594749     0.076782  Biso 1.000000     C
    C   1.0     0.952826     0.648657     0.121860  Biso 1.000000     C
    C   1.0     0.030335     0.730509     0.144758  Biso 1.000000     C
    C   1.0     0.013697     0.780650     0.187069  Biso 1.000000     C
    C   1.0     0.918552     0.750089     0.207336  Biso 1.000000     C
    C   1.0     0.840810     0.668342     0.184250  Biso 1.000000     C
    C   1.0     0.857963     0.618219     0.142243  Biso 1.000000     C
    C   1.0     0.974579     0.951136     0.199181  Biso 1.000000     C
    C   1.0     0.950221     0.900327     0.749845  Biso 1.000000     C
    C   1.0     0.049961     0.099429     0.749800  Biso 1.000000     C
    C   1.0     0.049697     0.099699     0.250204  Biso 1.000000     C
    C   1.0     0.950107     0.900600     0.250261  Biso 1.000000     C
    N   1.0     0.900181     0.800366     0.749875  Biso 1.000000     N
    N   1.0     0.099909     0.199387     0.749798  Biso 1.000000     N
    N   1.0     0.099658     0.199654     0.250172  Biso 1.000000     N
    N   1.0     0.900238     0.800648     0.250271  Biso 1.000000     N
    O   1.0     0.620999     0.517771     0.560180  Biso 1.000000     O
    O   1.0     0.570429     0.628504     0.558013  Biso 1.000000     O
    O   1.0     0.378983     0.482135     0.560240  Biso 1.000000     O
    O   1.0     0.429661     0.371480     0.557957  Biso 1.000000     O
    O   1.0     0.896524     0.519338     0.940916  Biso 1.000000     O
    O   1.0     0.058492     0.627320     0.940909  Biso 1.000000     O
    O   1.0     0.103468     0.480607     0.940908  Biso 1.000000     O
    O   1.0     0.941500     0.372622     0.940887  Biso 1.000000     O
    O   1.0     0.375147     0.479553     0.442094  Biso 1.000000     O
    O   1.0     0.433216     0.374512     0.439672  Biso 1.000000     O
    O   1.0     0.624823     0.520610     0.442057  Biso 1.000000     O
    O   1.0     0.566676     0.625591     0.439757  Biso 1.000000     O
    O   1.0     0.103447     0.480701     0.059109  Biso 1.000000     O
    O   1.0     0.941476     0.372725     0.059110  Biso 1.000000     O
    O   1.0     0.896518     0.519439     0.059106  Biso 1.000000     O
    O   1.0     0.058490     0.627410     0.059121  Biso 1.000000     O
   Cu   1.0     0.529154     0.442318     0.499930  Biso 1.000000    Cu
   Cu   1.0     0.470808     0.557703     0.500045  Biso 1.000000    Cu
   Cu   1.0     0.913260     0.442322    -0.000004  Biso 1.000000    Cu
   Cu   1.0     0.086711     0.557697     0.000000  Biso 1.000000    Cu
