#======================================================================

# CRYSTAL DATA

#----------------------------------------------------------------------

data_VESTA_phase_1


_pd_phase_name                         MOF
_cell_length_a                         18.87600
_cell_length_b                         20.39800
_cell_length_c                         19.19200
_cell_angle_alpha                      90.08200
_cell_angle_beta                       90.08600
_cell_angle_gamma                      90.22500
_symmetry_space_group_name_H-M         "P 1"
_symmetry_Int_Tables_number            1

loop_
_symmetry_equiv_pos_as_xyz
   "x, y, z"

loop_
   _atom_site_label
   _atom_site_occupancy
   _atom_site_fract_x
   _atom_site_fract_y
   _atom_site_fract_z
   _atom_site_adp_type
   _atom_site_B_iso_or_equiv
   _atom_site_type_symbol
    H   1.0     0.158655     0.709329     0.601207  Biso 1.000000     H
    H   1.0     0.656326     0.709414     0.601522  Biso 1.000000     H
    H   1.0     0.115692     0.528115     0.417328  Biso 1.000000     H
    H   1.0     0.616542     0.527909     0.417558  Biso 1.000000     H
    H   1.0     0.115462     0.570024     0.085172  Biso 1.000000     H
    H   1.0     0.615429     0.570280     0.085014  Biso 1.000000     H
    H   1.0     0.188090     0.469790     0.065071  Biso 1.000000     H
    H   1.0     0.688046     0.469961     0.065379  Biso 1.000000     H
    H   1.0     0.167312     0.402170     0.958218  Biso 1.000000     H
    H   1.0     0.667480     0.402114     0.958619  Biso 1.000000     H
    H   1.0     0.115781     0.679721     0.920031  Biso 1.000000     H
    H   1.0     0.615910     0.679568     0.919261  Biso 1.000000     H
    H   1.0     0.199756     0.772894     0.936762  Biso 1.000000     H
    H   1.0     0.700577     0.772250     0.935783  Biso 1.000000     H
    H   1.0     0.194865     0.839612     0.046108  Biso 1.000000     H
    H   1.0     0.696613     0.838802     0.045284  Biso 1.000000     H
    H   1.0     0.032385     0.506142     0.713268  Biso 1.000000     H
    H   1.0     0.532342     0.505463     0.713332  Biso 1.000000     H
    H   1.0     0.038382     0.592321     0.621585  Biso 1.000000     H
    H   1.0     0.537833     0.591821     0.621797  Biso 1.000000     H
    H   1.0     0.181749     0.467523     0.508019  Biso 1.000000     H
    H   1.0     0.681830     0.467860     0.507998  Biso 1.000000     H
    H   1.0     0.165206     0.383143     0.601517  Biso 1.000000     H
    H   1.0     0.665832     0.383294     0.601342  Biso 1.000000     H
    H   1.0     0.061639     0.604151     0.487967  Biso 1.000000     H
    H   1.0     0.560858     0.603443     0.487646  Biso 1.000000     H
    H   1.0     0.215091     0.631697     0.530096  Biso 1.000000     H
    H   1.0     0.713464     0.632857     0.531334  Biso 1.000000     H
    H   1.0     0.068988     0.749733     0.504792  Biso 1.000000     H
    H   1.0     0.568012     0.750597     0.503899  Biso 1.000000     H
    H   1.0     0.066935     0.831392     0.406866  Biso 1.000000     H
    H   1.0     0.566997     0.831932     0.405631  Biso 1.000000     H
    H   1.0     0.242704     0.746027     0.314775  Biso 1.000000     H
    H   1.0     0.742687     0.745224     0.314809  Biso 1.000000     H
    H   1.0     0.249335     0.660045     0.405621  Biso 1.000000     H
    H   1.0     0.748251     0.659571     0.405945  Biso 1.000000     H
    H   1.0     0.020982     0.944724     0.290377  Biso 1.000000     H
    H   1.0     0.522191     0.944940     0.289432  Biso 1.000000     H
    H   1.0     0.030835     0.878064     0.245462  Biso 1.000000     H
    H   1.0     0.532129     0.878139     0.244747  Biso 1.000000     H
    H   1.0     0.341318     0.291268     0.101405  Biso 1.000000     H
    H   1.0     0.843631     0.291259     0.101587  Biso 1.000000     H
    H   1.0     0.383744     0.472235     0.917589  Biso 1.000000     H
    H   1.0     0.883563     0.472197     0.917468  Biso 1.000000     H
    H   1.0     0.382783     0.429818     0.584364  Biso 1.000000     H
    H   1.0     0.882304     0.430735     0.584754  Biso 1.000000     H
    H   1.0     0.310838     0.530480     0.564612  Biso 1.000000     H
    H   1.0     0.809550     0.530977     0.565323  Biso 1.000000     H
    H   1.0     0.332642     0.598671     0.458629  Biso 1.000000     H
    H   1.0     0.830109     0.599070     0.459069  Biso 1.000000     H
    H   1.0     0.382284     0.320421     0.419726  Biso 1.000000     H
    H   1.0     0.881860     0.321657     0.418919  Biso 1.000000     H
    H   1.0     0.297735     0.227795     0.436297  Biso 1.000000     H
    H   1.0     0.797614     0.228715     0.435178  Biso 1.000000     H
    H   1.0     0.302202     0.161430     0.545715  Biso 1.000000     H
    H   1.0     0.802141     0.162201     0.544489  Biso 1.000000     H
    H   1.0     0.468261     0.494591     0.213729  Biso 1.000000     H
    H   1.0     0.967780     0.495481     0.213695  Biso 1.000000     H
    H   1.0     0.461968     0.408254     0.121990  Biso 1.000000     H
    H   1.0     0.962735     0.409119     0.121836  Biso 1.000000     H
    H   1.0     0.318013     0.532709     0.008680  Biso 1.000000     H
    H   1.0     0.817389     0.532128     0.008473  Biso 1.000000     H
    H   1.0     0.334744     0.617222     0.102284  Biso 1.000000     H
    H   1.0     0.832973     0.616759     0.102147  Biso 1.000000     H
    H   1.0     0.438398     0.396251     0.988349  Biso 1.000000     H
    H   1.0     0.939171     0.396896     0.988013  Biso 1.000000     H
    H   1.0     0.285057     0.368528     0.030210  Biso 1.000000     H
    H   1.0     0.786482     0.367733     0.031121  Biso 1.000000     H
    H   1.0     0.430993     0.250439     0.004497  Biso 1.000000     H
    H   1.0     0.932126     0.249962     0.004025  Biso 1.000000     H
    H   1.0     0.432666     0.168764     0.906340  Biso 1.000000     H
    H   1.0     0.933151     0.168461     0.905695  Biso 1.000000     H
    H   1.0     0.256819     0.254367     0.814393  Biso 1.000000     H
    H   1.0     0.757125     0.254647     0.814685  Biso 1.000000     H
    H   1.0     0.250535     0.340349     0.905490  Biso 1.000000     H
    H   1.0     0.751417     0.340411     0.906052  Biso 1.000000     H
    H   1.0     0.477984     0.055297     0.789133  Biso 1.000000     H
    H   1.0     0.977492     0.055057     0.786750  Biso 1.000000     H
    H   1.0     0.467704     0.122037     0.744577  Biso 1.000000     H
    H   1.0     0.967354     0.121888     0.742196  Biso 1.000000     H
    H   1.0     0.093516     0.210784     0.601229  Biso 1.000000     H
    H   1.0     0.591249     0.208743     0.601844  Biso 1.000000     H
    H   1.0     0.133624     0.029014     0.418095  Biso 1.000000     H
    H   1.0     0.633726     0.027778     0.418076  Biso 1.000000     H
    H   1.0     0.133255     0.070284     0.084647  Biso 1.000000     H
    H   1.0     0.633764     0.070357     0.084527  Biso 1.000000     H
    H   1.0     0.060040     0.969835     0.064708  Biso 1.000000     H
    H   1.0     0.560614     0.969841     0.064715  Biso 1.000000     H
    H   1.0     0.080590     0.901765     0.958322  Biso 1.000000     H
    H   1.0     0.581151     0.901713     0.958369  Biso 1.000000     H
    H   1.0     0.133875     0.179246     0.919007  Biso 1.000000     H
    H   1.0     0.633952     0.179225     0.919170  Biso 1.000000     H
    H   1.0     0.049540     0.271554     0.935227  Biso 1.000000     H
    H   1.0     0.549461     0.271346     0.935689  Biso 1.000000     H
    H   1.0     0.053105     0.337660     0.045072  Biso 1.000000     H
    H   1.0     0.553274     0.337452     0.045548  Biso 1.000000     H
    H   1.0     0.217177     0.000000     0.714247  Biso 1.000000     H
    H   1.0     0.717671     0.000000     0.713925  Biso 1.000000     H
    H   1.0     0.211590     0.093437     0.623068  Biso 1.000000     H
    H   1.0     0.711481     0.092390     0.622621  Biso 1.000000     H
    H   1.0     0.068567     0.968196     0.507851  Biso 1.000000     H
    H   1.0     0.568134     0.966824     0.508240  Biso 1.000000     H
    H   1.0     0.084744     0.883494     0.600888  Biso 1.000000     H
    H   1.0     0.584797     0.882266     0.601398  Biso 1.000000     H
    H   1.0     0.189169     0.105130     0.488656  Biso 1.000000     H
    H   1.0     0.688299     0.104336     0.488853  Biso 1.000000     H
    H   1.0     0.036471     0.132999     0.531915  Biso 1.000000     H
    H   1.0     0.534944     0.130869     0.530717  Biso 1.000000     H
    H   1.0     0.181088     0.252393     0.503650  Biso 1.000000     H
    H   1.0     0.680368     0.250453     0.505562  Biso 1.000000     H
    H   1.0     0.180811     0.333629     0.405295  Biso 1.000000     H
    H   1.0     0.682013     0.331998     0.407513  Biso 1.000000     H
    H   1.0     0.005132     0.244421     0.315239  Biso 1.000000     H
    H   1.0     0.506977     0.244167     0.314780  Biso 1.000000     H
    H   1.0     0.000858     0.158818     0.406472  Biso 1.000000     H
    H   1.0     0.500840     0.158266     0.405653  Biso 1.000000     H
    H   1.0     0.224481     0.447270     0.288374  Biso 1.000000     H
    H   1.0     0.727951     0.444877     0.289874  Biso 1.000000     H
    H   1.0     0.215617     0.379584     0.244789  Biso 1.000000     H
    H   1.0     0.717743     0.378062     0.245107  Biso 1.000000     H
    H   1.0     0.406339     0.791331     0.102021  Biso 1.000000     H
    H   1.0     0.906058     0.791351     0.102072  Biso 1.000000     H
    H   1.0     0.366354     0.972201     0.918226  Biso 1.000000     H
    H   1.0     0.866464     0.972205     0.918075  Biso 1.000000     H
    H   1.0     0.367453     0.931317     0.584637  Biso 1.000000     H
    H   1.0     0.867273     0.930706     0.584950  Biso 1.000000     H
    H   1.0     0.439987     0.032090     0.564699  Biso 1.000000     H
    H   1.0     0.940071     0.031355     0.565100  Biso 1.000000     H
    H   1.0     0.418123     0.100176     0.458723  Biso 1.000000     H
    H   1.0     0.918833     0.099257     0.458913  Biso 1.000000     H
    H   1.0     0.366313     0.821939     0.419574  Biso 1.000000     H
    H   1.0     0.866527     0.821566     0.419834  Biso 1.000000     H
    H   1.0     0.450415     0.729484     0.435885  Biso 1.000000     H
    H   1.0     0.950676     0.729136     0.436023  Biso 1.000000     H
    H   1.0     0.446524     0.663356     0.545537  Biso 1.000000     H
    H   1.0     0.946515     0.662631     0.545384  Biso 1.000000     H
    H   1.0     0.281123    -0.005404     0.213795  Biso 1.000000     H
    H   1.0     0.781097    -0.005496     0.213598  Biso 1.000000     H
    H   1.0     0.287204     0.908101     0.122290  Biso 1.000000     H
    H   1.0     0.787002     0.908094     0.122009  Biso 1.000000     H
    H   1.0     0.431435     0.033120     0.009107  Biso 1.000000     H
    H   1.0     0.931579     0.032952     0.009024  Biso 1.000000     H
    H   1.0     0.414844     0.117739     0.102405  Biso 1.000000     H
    H   1.0     0.915110     0.117527     0.102404  Biso 1.000000     H
    H   1.0     0.310666     0.896360     0.988274  Biso 1.000000     H
    H   1.0     0.810669     0.896305     0.988047  Biso 1.000000     H
    H   1.0     0.463341     0.868449     0.031908  Biso 1.000000     H
    H   1.0     0.963308     0.868366     0.031810  Biso 1.000000     H
    H   1.0     0.317877     0.749375     0.004468  Biso 1.000000     H
    H   1.0     0.818052     0.749118     0.004739  Biso 1.000000     H
    H   1.0     0.316912     0.668010     0.905963  Biso 1.000000     H
    H   1.0     0.816971     0.667645     0.906355  Biso 1.000000     H
    H   1.0     0.492489     0.756092     0.815304  Biso 1.000000     H
    H   1.0     0.992135     0.755922     0.815114  Biso 1.000000     H
    H   1.0     0.497994     0.841822     0.906670  Biso 1.000000     H
    H   1.0     0.997769     0.841721     0.906395  Biso 1.000000     H
    H   1.0     0.271789     0.555457     0.787854  Biso 1.000000     H
    H   1.0     0.772655     0.553467     0.787909  Biso 1.000000     H
    H   1.0     0.282006     0.623066     0.744806  Biso 1.000000     H
    H   1.0     0.781992     0.620868     0.744329  Biso 1.000000     H
    C   1.0     0.086056     0.464775     0.918143  Biso 1.000000     C
    C   1.0     0.586396     0.464682     0.918191  Biso 1.000000     C
    C   1.0     0.046403     0.522601     0.928237  Biso 1.000000     C
    C   1.0     0.546697     0.522548     0.928017  Biso 1.000000     C
    C   1.0     0.057425     0.560253     0.988923  Biso 1.000000     C
    C   1.0     0.557620     0.560306     0.988659  Biso 1.000000     C
    C   1.0     0.108320     0.540785     0.038042  Biso 1.000000     C
    C   1.0     0.608385     0.540926     0.037949  Biso 1.000000     C
    C   1.0     0.148555     0.484635     0.026812  Biso 1.000000     C
    C   1.0     0.648617     0.484734     0.026984  Biso 1.000000     C
    C   1.0     0.137211     0.446691     0.967276  Biso 1.000000     C
    C   1.0     0.637393     0.446673     0.967518  Biso 1.000000     C
    C   1.0     0.495740     0.547880     0.873856  Biso 1.000000     C
    C   1.0     0.995494     0.547978     0.874111  Biso 1.000000     C
    C   1.0     0.073553     0.423447     0.854858  Biso 1.000000     C
    C   1.0     0.574229     0.423194     0.854966  Biso 1.000000     C
    C   1.0     0.064232     0.693913     0.019069  Biso 1.000000     C
    C   1.0     0.564907     0.693891     0.018543  Biso 1.000000     C
    C   1.0     0.114372     0.709050     0.967553  Biso 1.000000     C
    C   1.0     0.614915     0.708838     0.966838  Biso 1.000000     C
    C   1.0     0.161365     0.761090     0.977213  Biso 1.000000     C
    C   1.0     0.662292     0.760594     0.976377  Biso 1.000000     C
    C   1.0     0.158284     0.798954     0.037815  Biso 1.000000     C
    C   1.0     0.659728     0.798365     0.037067  Biso 1.000000     C
    C   1.0     0.107277     0.785767     0.088699  Biso 1.000000     C
    C   1.0     0.608851     0.785388     0.088142  Biso 1.000000     C
    C   1.0     0.060171     0.732511     0.079829  Biso 1.000000     C
    C   1.0     0.561330     0.732409     0.079397  Biso 1.000000     C
    C   1.0     0.012409     0.710441     0.138167  Biso 1.000000     C
    C   1.0     0.513416     0.710546     0.137749  Biso 1.000000     C
    C   1.0     0.101736     0.828090     0.152710  Biso 1.000000     C
    C   1.0     0.603747     0.827808     0.152101  Biso 1.000000     C
    C   1.0     0.063877     0.499128     0.666303  Biso 1.000000     C
    C   1.0     0.563847     0.498667     0.666343  Biso 1.000000     C
    C   1.0     0.068230     0.547156     0.615421  Biso 1.000000     C
    C   1.0     0.567925     0.546806     0.615543  Biso 1.000000     C
    C   1.0     0.111154     0.536617     0.556993  Biso 1.000000     C
    C   1.0     0.610881     0.536578     0.557074  Biso 1.000000     C
    C   1.0     0.148222     0.477486     0.552875  Biso 1.000000     C
    C   1.0     0.648252     0.477608     0.552866  Biso 1.000000     C
    C   1.0     0.139653     0.430871     0.604869  Biso 1.000000     C
    C   1.0     0.639967     0.430874     0.604784  Biso 1.000000     C
    C   1.0     0.116088     0.586604     0.498699  Biso 1.000000     C
    C   1.0     0.615498     0.586599     0.498749  Biso 1.000000     C
    C   1.0     0.159908     0.648006     0.521512  Biso 1.000000     C
    C   1.0     0.658261     0.648565     0.521689  Biso 1.000000     C
    C   1.0     0.159052     0.698028     0.463114  Biso 1.000000     C
    C   1.0     0.657935     0.698251     0.462916  Biso 1.000000     C
    C   1.0     0.107400     0.747035     0.462631  Biso 1.000000     C
    C   1.0     0.606610     0.747537     0.461938  Biso 1.000000     C
    C   1.0     0.106441     0.792583     0.409068  Biso 1.000000     C
    C   1.0     0.606225     0.792904     0.408190  Biso 1.000000     C
    C   1.0     0.204416     0.744812     0.357208  Biso 1.000000     C
    C   1.0     0.704157     0.744400     0.357038  Biso 1.000000     C
    C   1.0     0.208067     0.697065     0.408547  Biso 1.000000     C
    C   1.0     0.707218     0.696821     0.408584  Biso 1.000000     C
    C   1.0     0.413873     0.536008     0.418704  Biso 1.000000     C
    C   1.0     0.911321     0.536691     0.418574  Biso 1.000000     C
    C   1.0     0.453198     0.477952     0.428585  Biso 1.000000     C
    C   1.0     0.951039     0.478842     0.428265  Biso 1.000000     C
    C   1.0     0.441540     0.439935     0.488786  Biso 1.000000     C
    C   1.0     0.940172     0.440956     0.488661  Biso 1.000000     C
    C   1.0     0.390405     0.459313     0.537599  Biso 1.000000     C
    C   1.0     0.889335     0.460166     0.537852  Biso 1.000000     C
    C   1.0     0.350546     0.515711     0.526570  Biso 1.000000     C
    C   1.0     0.849022     0.516315     0.526998  Biso 1.000000     C
    C   1.0     0.362470     0.553975     0.467539  Biso 1.000000     C
    C   1.0     0.860233     0.554515     0.467774  Biso 1.000000     C
    C   1.0     0.001914     0.453520     0.374143  Biso 1.000000     C
    C   1.0     0.504391     0.452642     0.374751  Biso 1.000000     C
    C   1.0     0.426743     0.577772     0.355942  Biso 1.000000     C
    C   1.0     0.923875     0.578432     0.355765  Biso 1.000000     C
    C   1.0     0.433802     0.306294     0.518891  Biso 1.000000     C
    C   1.0     0.933402     0.307376     0.518054  Biso 1.000000     C
    C   1.0     0.383511     0.291268     0.467291  Biso 1.000000     C
    C   1.0     0.883174     0.292366     0.466386  Biso 1.000000     C
    C   1.0     0.336167     0.239546     0.476869  Biso 1.000000     C
    C   1.0     0.835997     0.240489     0.475791  Biso 1.000000     C
    C   1.0     0.339038     0.201860     0.537492  Biso 1.000000     C
    C   1.0     0.838877     0.202737     0.536372  Biso 1.000000     C
    C   1.0     0.390221     0.214853     0.588452  Biso 1.000000     C
    C   1.0     0.889957     0.215807     0.587401  Biso 1.000000     C
    C   1.0     0.437697     0.267822     0.579675  Biso 1.000000     C
    C   1.0     0.937407     0.268787     0.578719  Biso 1.000000     C
    C   1.0     0.485971     0.289702     0.637925  Biso 1.000000     C
    C   1.0     0.985879     0.290498     0.636877  Biso 1.000000     C
    C   1.0     0.395715     0.172364     0.652239  Biso 1.000000     C
    C   1.0     0.895534     0.173245     0.651098  Biso 1.000000     C
    C   1.0     0.436552     0.501516     0.166816  Biso 1.000000     C
    C   1.0     0.936109     0.502090     0.166709  Biso 1.000000     C
    C   1.0     0.432042     0.453380     0.115890  Biso 1.000000     C
    C   1.0     0.932272     0.453938     0.115749  Biso 1.000000     C
    C   1.0     0.388908     0.463760     0.057474  Biso 1.000000     C
    C   1.0     0.889054     0.463904     0.057318  Biso 1.000000     C
    C   1.0     0.351729     0.522838     0.053496  Biso 1.000000     C
    C   1.0     0.851184     0.522602     0.053313  Biso 1.000000     C
    C   1.0     0.360422     0.569549     0.105555  Biso 1.000000     C
    C   1.0     0.859239     0.569361     0.105409  Biso 1.000000     C
    C   1.0     0.383927     0.413725     0.999023  Biso 1.000000     C
    C   1.0     0.884540     0.413809     0.998901  Biso 1.000000     C
    C   1.0     0.340224     0.352252     0.021576  Biso 1.000000     C
    C   1.0     0.841678     0.351927     0.021722  Biso 1.000000     C
    C   1.0     0.340909     0.302277     0.962938  Biso 1.000000     C
    C   1.0     0.842010     0.302073     0.962967  Biso 1.000000     C
    C   1.0     0.392489     0.253204     0.962310  Biso 1.000000     C
    C   1.0     0.893453     0.252890     0.962007  Biso 1.000000     C
    C   1.0     0.393244     0.207642     0.908613  Biso 1.000000     C
    C   1.0     0.893851     0.207434     0.908202  Biso 1.000000     C
    C   1.0     0.295217     0.255534     0.856851  Biso 1.000000     C
    C   1.0     0.795711     0.255645     0.856981  Biso 1.000000     C
    C   1.0     0.291767     0.303288     0.908332  Biso 1.000000     C
    C   1.0     0.792597     0.303285     0.908597  Biso 1.000000     C
    C   1.0     0.162672     0.964056     0.918553  Biso 1.000000     C
    C   1.0     0.663063     0.964107     0.918436  Biso 1.000000     C
    C   1.0     0.202866     0.021891     0.928652  Biso 1.000000     C
    C   1.0     0.703201     0.021990     0.928448  Biso 1.000000     C
    C   1.0     0.191713     0.059985     0.988919  Biso 1.000000     C
    C   1.0     0.692116     0.060073     0.988736  Biso 1.000000     C
    C   1.0     0.140437     0.040761     0.037783  Biso 1.000000     C
    C   1.0     0.640912     0.040827     0.037664  Biso 1.000000     C
    C   1.0     0.099834     0.984497     0.026625  Biso 1.000000     C
    C   1.0     0.600348     0.984526     0.026580  Biso 1.000000     C
    C   1.0     0.111082     0.946287     0.967364  Biso 1.000000     C
    C   1.0     0.611570     0.946294     0.967333  Biso 1.000000     C
    C   1.0     0.254278     0.046906     0.874766  Biso 1.000000     C
    C   1.0     0.754558     0.047021     0.874507  Biso 1.000000     C
    C   1.0     0.174964     0.922414     0.855550  Biso 1.000000     C
    C   1.0     0.675379     0.922373     0.855511  Biso 1.000000     C
    C   1.0     0.184604     0.193543     0.018636  Biso 1.000000     C
    C   1.0     0.684981     0.193564     0.018646  Biso 1.000000     C
    C   1.0     0.134805     0.208384     0.966681  Biso 1.000000     C
    C   1.0     0.634972     0.208341     0.966858  Biso 1.000000     C
    C   1.0     0.087557     0.259893     0.976080  Biso 1.000000     C
    C   1.0     0.587620     0.259737     0.976431  Biso 1.000000     C
    C   1.0     0.089953     0.297463     0.036941  Biso 1.000000     C
    C   1.0     0.590142     0.297288     0.037302  Biso 1.000000     C
    C   1.0     0.140594     0.284585     0.088317  Biso 1.000000     C
    C   1.0     0.640988     0.284476     0.088494  Biso 1.000000     C
    C   1.0     0.188051     0.231934     0.079624  Biso 1.000000     C
    C   1.0     0.688565     0.231927     0.079641  Biso 1.000000     C
    C   1.0     0.235920     0.210309     0.138042  Biso 1.000000     C
    C   1.0     0.736590     0.210328     0.137987  Biso 1.000000     C
    C   1.0     0.145456     0.326913     0.152456  Biso 1.000000     C
    C   1.0     0.646056     0.326743     0.152635  Biso 1.000000     C
    C   1.0     0.185865     0.999803     0.667037  Biso 1.000000     C
    C   1.0     0.686148     0.998764     0.666865  Biso 1.000000     C
    C   1.0     0.181707     0.048125     0.616415  Biso 1.000000     C
    C   1.0     0.681676     0.047001     0.616195  Biso 1.000000     C
    C   1.0     0.139038     0.037622     0.557594  Biso 1.000000     C
    C   1.0     0.638727     0.036355     0.557606  Biso 1.000000     C
    C   1.0     0.101958     0.978212     0.552948  Biso 1.000000     C
    C   1.0     0.601705     0.976912     0.553193  Biso 1.000000     C
    C   1.0     0.110331     0.931370     0.604715  Biso 1.000000     C
    C   1.0     0.610367     0.930164     0.605006  Biso 1.000000     C
    C   1.0     0.134526     0.087766     0.499355  Biso 1.000000     C
    C   1.0     0.633815     0.086449     0.499388  Biso 1.000000     C
    C   1.0     0.091537     0.149315     0.522067  Biso 1.000000     C
    C   1.0     0.590095     0.147567     0.522092  Biso 1.000000     C
    C   1.0     0.091239     0.198806     0.463100  Biso 1.000000     C
    C   1.0     0.590717     0.197518     0.463589  Biso 1.000000     C
    C   1.0     0.142210     0.248768     0.461853  Biso 1.000000     C
    C   1.0     0.642022     0.247208     0.463253  Biso 1.000000     C
    C   1.0     0.141887     0.294076     0.408050  Biso 1.000000     C
    C   1.0     0.642760     0.292685     0.409609  Biso 1.000000     C
    C   1.0     0.043957     0.244191     0.357325  Biso 1.000000     C
    C   1.0     0.545201     0.243554     0.357389  Biso 1.000000     C
    C   1.0     0.041608     0.196641     0.408944  Biso 1.000000     C
    C   1.0     0.541811     0.195844     0.408788  Biso 1.000000     C
    C   1.0     0.336474     0.037236     0.418825  Biso 1.000000     C
    C   1.0     0.837012     0.036521     0.418917  Biso 1.000000     C
    C   1.0     0.296849     0.979095     0.428800  Biso 1.000000     C
    C   1.0     0.797122     0.978534     0.428932  Biso 1.000000     C
    C   1.0     0.308413     0.941227     0.489062  Biso 1.000000     C
    C   1.0     0.808480     0.940644     0.489236  Biso 1.000000     C
    C   1.0     0.359847     0.960741     0.537835  Biso 1.000000     C
    C   1.0     0.859846     0.960109     0.538105  Biso 1.000000     C
    C   1.0     0.400048     0.017203     0.526696  Biso 1.000000     C
    C   1.0     0.900212     0.016484     0.527006  Biso 1.000000     C
    C   1.0     0.388134     0.055379     0.467622  Biso 1.000000     C
    C   1.0     0.888612     0.054590     0.467816  Biso 1.000000     C
    C   1.0     0.245497     0.953519     0.374922  Biso 1.000000     C
    C   1.0     0.745738     0.953213     0.374948  Biso 1.000000     C
    C   1.0     0.323472     0.078739     0.355966  Biso 1.000000     C
    C   1.0     0.824291     0.078057     0.355982  Biso 1.000000     C
    C   1.0     0.315396     0.807746     0.518935  Biso 1.000000     C
    C   1.0     0.815383     0.807046     0.519027  Biso 1.000000     C
    C   1.0     0.365258     0.792819     0.467168  Biso 1.000000     C
    C   1.0     0.865366     0.792295     0.467321  Biso 1.000000     C
    C   1.0     0.412378     0.741220     0.476619  Biso 1.000000     C
    C   1.0     0.912506     0.740701     0.476694  Biso 1.000000     C
    C   1.0     0.409803     0.703641     0.537347  Biso 1.000000     C
    C   1.0     0.909800     0.702935     0.537272  Biso 1.000000     C
    C   1.0     0.359085     0.716631     0.588498  Biso 1.000000     C
    C   1.0     0.858957     0.715716     0.588372  Biso 1.000000     C
    C   1.0     0.311741     0.769358     0.579772  Biso 1.000000     C
    C   1.0     0.811591     0.768445     0.579733  Biso 1.000000     C
    C   1.0     0.263705     0.790969     0.638005  Biso 1.000000     C
    C   1.0     0.763592     0.789941     0.638062  Biso 1.000000     C
    C   1.0     0.353807     0.674419     0.652497  Biso 1.000000     C
    C   1.0     0.853874     0.673284     0.652250  Biso 1.000000     C
    C   1.0     0.312822     0.001617     0.166949  Biso 1.000000     C
    C   1.0     0.812823     0.001512     0.166767  Biso 1.000000     C
    C   1.0     0.317237     0.953365     0.116155  Biso 1.000000     C
    C   1.0     0.817149     0.953300     0.115930  Biso 1.000000     C
    C   1.0     0.360398     0.963835     0.057839  Biso 1.000000     C
    C   1.0     0.860380     0.963756     0.057663  Biso 1.000000     C
    C   1.0     0.397690     0.023145     0.053832  Biso 1.000000     C
    C   1.0     0.897786     0.023006     0.053721  Biso 1.000000     C
    C   1.0     0.389074     0.069929     0.105734  Biso 1.000000     C
    C   1.0     0.889242     0.069759     0.105663  Biso 1.000000     C
    C   1.0     0.365247     0.913733     0.999473  Biso 1.000000     C
    C   1.0     0.865240     0.913673     0.999290  Biso 1.000000     C
    C   1.0     0.408150     0.852206     0.022395  Biso 1.000000     C
    C   1.0     0.908112     0.852140     0.022294  Biso 1.000000     C
    C   1.0     0.407795     0.802407     0.963590  Biso 1.000000     C
    C   1.0     0.907744     0.802262     0.963563  Biso 1.000000     C
    C   1.0     0.356488     0.752725     0.962515  Biso 1.000000     C
    C   1.0     0.856537     0.752489     0.962679  Biso 1.000000     C
    C   1.0     0.356116     0.707347     0.908629  Biso 1.000000     C
    C   1.0     0.856093     0.707064     0.908839  Biso 1.000000     C
    C   1.0     0.453986     0.756609     0.857559  Biso 1.000000     C
    C   1.0     0.953740     0.756428     0.857464  Biso 1.000000     C
    C   1.0     0.457037     0.804211     0.909235  Biso 1.000000     C
    C   1.0     0.956859     0.804074     0.909093  Biso 1.000000     C
    N   1.0     0.154476     0.792036     0.356993  Biso 1.000000     N
    N   1.0     0.654535     0.791914     0.356372  Biso 1.000000     N
    N   1.0     0.098224     0.441187     0.661026  Biso 1.000000     N
    N   1.0     0.598504     0.440885     0.660982  Biso 1.000000     N
    N   1.0     0.345075     0.208232     0.856518  Biso 1.000000     N
    N   1.0     0.845465     0.208249     0.856315  Biso 1.000000     N
    N   1.0     0.402122     0.559424     0.161657  Biso 1.000000     N
    N   1.0     0.900966     0.559619     0.161561  Biso 1.000000     N
    N   1.0     0.093213     0.292380     0.356430  Biso 1.000000     N
    N   1.0     0.594819     0.291431     0.357319  Biso 1.000000     N
    N   1.0     0.151583     0.941618     0.661205  Biso 1.000000     N
    N   1.0     0.651879     0.940550     0.661281  Biso 1.000000     N
    N   1.0     0.404401     0.708710     0.856800  Biso 1.000000     N
    N   1.0     0.904211     0.708470     0.856865  Biso 1.000000     N
    N   1.0     0.347356     0.059709     0.161746  Biso 1.000000     N
    N   1.0     0.847487     0.059541     0.161644  Biso 1.000000     N
    O   1.0     0.021463     0.583215     0.825528  Biso 1.000000     O
    O   1.0     0.521577     0.583308     0.825365  Biso 1.000000     O
    O   1.0     0.429250     0.538935     0.881091  Biso 1.000000     O
    O   1.0     0.928992     0.539154     0.881363  Biso 1.000000     O
    O   1.0     0.019460     0.435614     0.817415  Biso 1.000000     O
    O   1.0     0.520915     0.435963     0.816710  Biso 1.000000     O
    O   1.0     0.117209     0.377398     0.839248  Biso 1.000000     O
    O   1.0     0.617290     0.376443     0.840174  Biso 1.000000     O
    O   1.0     0.042630     0.678179     0.186568  Biso 1.000000     O
    O   1.0     0.543475     0.678085     0.186156  Biso 1.000000     O
    O   1.0     0.446586     0.719361     0.135860  Biso 1.000000     O
    O   1.0     0.945455     0.719077     0.136278  Biso 1.000000     O
    O   1.0     0.040580     0.836093     0.177861  Biso 1.000000     O
    O   1.0     0.542747     0.835879     0.177535  Biso 1.000000     O
    O   1.0     0.160079     0.852757     0.176351  Biso 1.000000     O
    O   1.0     0.662148     0.852554     0.175508  Biso 1.000000     O
    O   1.0     0.129320     0.672444     0.583286  Biso 1.000000     O
    O   1.0     0.626460     0.673254     0.582770  Biso 1.000000     O
    O   1.0     0.148129     0.561364     0.438031  Biso 1.000000     O
    O   1.0     0.648305     0.561677     0.438359  Biso 1.000000     O
    O   1.0     0.039148     0.900194     0.292890  Biso 1.000000     O
    O   1.0     0.540056     0.900319     0.292169  Biso 1.000000     O
    O   1.0     0.478576     0.418121     0.325331  Biso 1.000000     O
    O   1.0     0.975770     0.419109     0.324770  Biso 1.000000     O
    O   1.0     0.068454     0.461328     0.382240  Biso 1.000000     O
    O   1.0     0.570890     0.460720     0.383037  Biso 1.000000     O
    O   1.0     0.481436     0.566368     0.319204  Biso 1.000000     O
    O   1.0     0.978504     0.566810     0.318966  Biso 1.000000     O
    O   1.0     0.382685     0.623381     0.340009  Biso 1.000000     O
    O   1.0     0.879977     0.624156     0.339874  Biso 1.000000     O
    O   1.0     0.456412     0.322217     0.686522  Biso 1.000000     O
    O   1.0     0.956291     0.321911     0.686325  Biso 1.000000     O
    O   1.0     0.052829     0.282606     0.633847  Biso 1.000000     O
    O   1.0     0.552827     0.280823     0.635717  Biso 1.000000     O
    O   1.0     0.456879     0.164230     0.677449  Biso 1.000000     O
    O   1.0     0.956978     0.163919     0.675174  Biso 1.000000     O
    O   1.0     0.337437     0.147593     0.675678  Biso 1.000000     O
    O   1.0     0.837106     0.149700     0.675483  Biso 1.000000     O
    O   1.0     0.370987     0.327740     0.083226  Biso 1.000000     O
    O   1.0     0.873416     0.327434     0.082962  Biso 1.000000     O
    O   1.0     0.351689     0.438808     0.938394  Biso 1.000000     O
    O   1.0     0.851785     0.438612     0.938393  Biso 1.000000     O
    O   1.0     0.459941     0.099858     0.791949  Biso 1.000000     O
    O   1.0     0.959767     0.099722     0.789670  Biso 1.000000     O
    O   1.0     0.228606     0.080880     0.825069  Biso 1.000000     O
    O   1.0     0.728792     0.080937     0.824791  Biso 1.000000     O
    O   1.0     0.320734     0.039179     0.883173  Biso 1.000000     O
    O   1.0     0.820994     0.039322     0.882893  Biso 1.000000     O
    O   1.0     0.230342     0.933303     0.819442  Biso 1.000000     O
    O   1.0     0.730795     0.933141     0.819422  Biso 1.000000     O
    O   1.0     0.129944     0.877574     0.838785  Biso 1.000000     O
    O   1.0     0.630326     0.877508     0.838849  Biso 1.000000     O
    O   1.0     0.206014     0.177853     0.186554  Biso 1.000000     O
    O   1.0     0.706622     0.177847     0.186488  Biso 1.000000     O
    O   1.0     0.302808     0.219390     0.136039  Biso 1.000000     O
    O   1.0     0.803457     0.219401     0.135991  Biso 1.000000     O
    O   1.0     0.206419     0.336035     0.177931  Biso 1.000000     O
    O   1.0     0.707170     0.335899     0.177734  Biso 1.000000     O
    O   1.0     0.086710     0.350528     0.175695  Biso 1.000000     O
    O   1.0     0.587495     0.350249     0.176402  Biso 1.000000     O
    O   1.0     0.123469     0.174735     0.582982  Biso 1.000000     O
    O   1.0     0.620860     0.172349     0.583787  Biso 1.000000     O
    O   1.0     0.102001     0.062734     0.438624  Biso 1.000000     O
    O   1.0     0.601696     0.061189     0.438603  Biso 1.000000     O
    O   1.0     0.206875     0.402473     0.291634  Biso 1.000000     O
    O   1.0     0.709869     0.400197     0.292515  Biso 1.000000     O
    O   1.0     0.271138     0.919214     0.325479  Biso 1.000000     O
    O   1.0     0.771431     0.919151     0.325317  Biso 1.000000     O
    O   1.0     0.179005     0.961160     0.383253  Biso 1.000000     O
    O   1.0     0.679273     0.960858     0.383214  Biso 1.000000     O
    O   1.0     0.268718     0.066709     0.319223  Biso 1.000000     O
    O   1.0     0.769060     0.066769     0.319627  Biso 1.000000     O
    O   1.0     0.367405     0.124698     0.339909  Biso 1.000000     O
    O   1.0     0.868877     0.123326     0.339568  Biso 1.000000     O
    O   1.0     0.293469     0.822966     0.687080  Biso 1.000000     O
    O   1.0     0.793459     0.822316     0.686834  Biso 1.000000     O
    O   1.0     0.196709     0.782410     0.635169  Biso 1.000000     O
    O   1.0     0.696687     0.780882     0.635782  Biso 1.000000     O
    O   1.0     0.292830     0.666514     0.678148  Biso 1.000000     O
    O   1.0     0.792871     0.664159     0.677387  Biso 1.000000     O
    O   1.0     0.412075     0.649680     0.675628  Biso 1.000000     O
    O   1.0     0.912502     0.649624     0.675820  Biso 1.000000     O
    O   1.0     0.376543     0.827390     0.083559  Biso 1.000000     O
    O   1.0     0.876435     0.827459     0.083471  Biso 1.000000     O
    O   1.0     0.398112     0.938774     0.939105  Biso 1.000000     O
    O   1.0     0.898154     0.938728     0.938961  Biso 1.000000     O
    O   1.0     0.290005     0.600029     0.791613  Biso 1.000000     O
    O   1.0     0.790030     0.598344     0.791372  Biso 1.000000     O
    S   1.0     0.001895     0.629109     0.005828  Biso 1.000000     S
    S   1.0     0.502247     0.629328     0.005356  Biso 1.000000     S
    S   1.0     0.496565     0.370689     0.505549  Biso 1.000000     S
    S   1.0     0.995805     0.372088     0.505092  Biso 1.000000     S
    S   1.0     0.247195     0.129376     0.005579  Biso 1.000000     S
    S   1.0     0.747602     0.129475     0.005336  Biso 1.000000     S
    S   1.0     0.252931     0.871967     0.505844  Biso 1.000000     S
    S   1.0     0.752968     0.871340     0.505943  Biso 1.000000     S
   Cd   1.0     0.058740     0.359777     0.733990  Biso 1.000000    Cd
   Cd   1.0     0.559487     0.359289     0.734148  Biso 1.000000    Cd
   Cd   1.0     0.161310     0.883342     0.287675  Biso 1.000000    Cd
   Cd   1.0     0.662252     0.883004     0.286929  Biso 1.000000    Cd
   Cd   1.0     0.441540     0.641012     0.234999  Biso 1.000000    Cd
   Cd   1.0     0.939584     0.641586     0.234878  Biso 1.000000    Cd
   Cd   1.0     0.337784     0.116898     0.786981  Biso 1.000000    Cd
   Cd   1.0     0.837698     0.117294     0.786352  Biso 1.000000    Cd
   Cd   1.0     0.190311     0.859835     0.734157  Biso 1.000000    Cd
   Cd   1.0     0.690704     0.859134     0.734511  Biso 1.000000    Cd
   Cd   1.0     0.084870     0.383022     0.286488  Biso 1.000000    Cd
   Cd   1.0     0.587648     0.382194     0.287389  Biso 1.000000    Cd
   Cd   1.0     0.308463     0.141360     0.234812  Biso 1.000000    Cd
   Cd   1.0     0.808843     0.141018     0.234945  Biso 1.000000    Cd
   Cd   1.0     0.412282     0.618033     0.786562  Biso 1.000000    Cd
   Cd   1.0     0.912088     0.617828     0.786645  Biso 1.000000    Cd
