#======================================================================

# CRYSTAL DATA

#----------------------------------------------------------------------

data_VESTA_phase_1


_pd_phase_name                         MOF
_cell_length_a                         20.34000
_cell_length_b                         14.21700
_cell_length_c                         14.21400
_cell_angle_alpha                      91.22800
_cell_angle_beta                       90.00900
_cell_angle_gamma                      90.04100
_symmetry_space_group_name_H-M         "P 1"
_symmetry_Int_Tables_number            1

loop_
_symmetry_equiv_pos_as_xyz
   "x, y, z"

loop_
   _atom_site_label
   _atom_site_occupancy
   _atom_site_fract_x
   _atom_site_fract_y
   _atom_site_fract_z
   _atom_site_adp_type
   _atom_site_B_iso_or_equiv
   _atom_site_type_symbol
    H   1.0     0.050031     0.271426     0.470344  Biso 1.000000     H
    H   1.0     0.550040     0.271425     0.470344  Biso 1.000000     H
    H   1.0     0.348357     0.245184     0.818633  Biso 1.000000     H
    H   1.0     0.848366     0.245184     0.818633  Biso 1.000000     H
    H   1.0     0.348550     0.331769     0.474108  Biso 1.000000     H
    H   1.0     0.848559     0.331769     0.474108  Biso 1.000000     H
    H   1.0     0.154875     0.532108     0.263708  Biso 1.000000     H
    H   1.0     0.654884     0.532108     0.263708  Biso 1.000000     H
    H   1.0     0.354839     0.180693     0.245951  Biso 1.000000     H
    H   1.0     0.854848     0.180693     0.245952  Biso 1.000000     H
    H   1.0     0.353929     0.528093     0.338351  Biso 1.000000     H
    H   1.0     0.853938     0.528093     0.338351  Biso 1.000000     H
    H   1.0     0.299964     0.229235     0.027459  Biso 1.000000     H
    H   1.0     0.799973     0.229235     0.027459  Biso 1.000000     H
    H   1.0     0.098276     0.252261     0.678801  Biso 1.000000     H
    H   1.0     0.598286     0.252261     0.678801  Biso 1.000000     H
    H   1.0     0.098428     0.168713     0.024229  Biso 1.000000     H
    H   1.0     0.598438     0.168713     0.024229  Biso 1.000000     H
    H   1.0     0.404950     0.969877     0.237061  Biso 1.000000     H
    H   1.0     0.904959     0.969877     0.237061  Biso 1.000000     H
    H   1.0     0.104851     0.321819     0.251308  Biso 1.000000     H
    H   1.0     0.604860     0.321820     0.251308  Biso 1.000000     H
    H   1.0     0.103915     0.973666     0.162034  Biso 1.000000     H
    H   1.0     0.603925     0.973666     0.162034  Biso 1.000000     H
    H   1.0     0.449987     0.728605     0.529629  Biso 1.000000     H
    H   1.0     0.949997     0.728605     0.529629  Biso 1.000000     H
    H   1.0     0.151661     0.754846     0.181340  Biso 1.000000     H
    H   1.0     0.651670     0.754846     0.181340  Biso 1.000000     H
    H   1.0     0.151468     0.668261     0.525865  Biso 1.000000     H
    H   1.0     0.651477     0.668261     0.525865  Biso 1.000000     H
    H   1.0     0.345143     0.467922     0.736265  Biso 1.000000     H
    H   1.0     0.845152     0.467922     0.736266  Biso 1.000000     H
    H   1.0     0.145179     0.819337     0.754022  Biso 1.000000     H
    H   1.0     0.645188     0.819337     0.754022  Biso 1.000000     H
    H   1.0     0.146089     0.471937     0.661622  Biso 1.000000     H
    H   1.0     0.646098     0.471937     0.661622  Biso 1.000000     H
    H   1.0     0.200054     0.770795     0.972514  Biso 1.000000     H
    H   1.0     0.700063     0.770796     0.972514  Biso 1.000000     H
    H   1.0     0.401741     0.747769     0.321173  Biso 1.000000     H
    H   1.0     0.901751     0.747769     0.321173  Biso 1.000000     H
    H   1.0     0.401589     0.831318     0.975745  Biso 1.000000     H
    H   1.0     0.901599     0.831317     0.975745  Biso 1.000000     H
    H   1.0     0.095068     0.030153     0.762912  Biso 1.000000     H
    H   1.0     0.595078     0.030153     0.762913  Biso 1.000000     H
    H   1.0     0.395167     0.678211     0.748665  Biso 1.000000     H
    H   1.0     0.895176     0.678211     0.748665  Biso 1.000000     H
    H   1.0     0.396102     0.026364     0.837940  Biso 1.000000     H
    H   1.0     0.896112     0.026364     0.837940  Biso 1.000000     H
    C   1.0     0.004475     0.273271     0.510784  Biso 1.000000     C
    C   1.0     0.504484     0.273271     0.510784  Biso 1.000000     C
    C   1.0     0.450627     0.253370     0.646685  Biso 1.000000     C
    C   1.0     0.950636     0.253370     0.646684  Biso 1.000000     C
    C   1.0     0.373773     0.252677     0.751773  Biso 1.000000     C
    C   1.0     0.873783     0.252677     0.751773  Biso 1.000000     C
    C   1.0     0.391035     0.284557     0.605767  Biso 1.000000     C
    C   1.0     0.891044     0.284557     0.605767  Biso 1.000000     C
    C   1.0     0.392108     0.308934     0.512043  Biso 1.000000     C
    C   1.0     0.892117     0.308934     0.512043  Biso 1.000000     C
    C   1.0     0.200016     0.491133     0.267968  Biso 1.000000     C
    C   1.0     0.700026     0.491133     0.267967  Biso 1.000000     C
    C   1.0     0.253712     0.354237     0.249556  Biso 1.000000     C
    C   1.0     0.753722     0.354237     0.249555  Biso 1.000000     C
    C   1.0     0.329865     0.248250     0.252266  Biso 1.000000     C
    C   1.0     0.829874     0.248250     0.252267  Biso 1.000000     C
    C   1.0     0.312847     0.395731     0.283824  Biso 1.000000     C
    C   1.0     0.812857     0.395731     0.283824  Biso 1.000000     C
    C   1.0     0.311374     0.489933     0.310432  Biso 1.000000     C
    C   1.0     0.811383     0.489934     0.310432  Biso 1.000000     C
    C   1.0     0.254415     0.226967     0.986975  Biso 1.000000     C
    C   1.0     0.754424     0.226967     0.986975  Biso 1.000000     C
    C   1.0     0.200553     0.245454     0.850876  Biso 1.000000     C
    C   1.0     0.700562     0.245455     0.850876  Biso 1.000000     C
    C   1.0     0.123711     0.245189     0.745715  Biso 1.000000     C
    C   1.0     0.623720     0.245189     0.745715  Biso 1.000000     C
    C   1.0     0.140942     0.214571     0.892034  Biso 1.000000     C
    C   1.0     0.640951     0.214571     0.892034  Biso 1.000000     C
    C   1.0     0.141998     0.191181     0.986024  Biso 1.000000     C
    C   1.0     0.642007     0.191181     0.986024  Biso 1.000000     C
    C   1.0     0.450059     0.010915     0.232322  Biso 1.000000     C
    C   1.0     0.950068     0.010914     0.232322  Biso 1.000000     C
    C   1.0     0.003727     0.148067     0.249223  Biso 1.000000     C
    C   1.0     0.503736     0.148068     0.249223  Biso 1.000000     C
    C   1.0     0.079850     0.254194     0.245459  Biso 1.000000     C
    C   1.0     0.579859     0.254194     0.245459  Biso 1.000000     C
    C   1.0     0.062841     0.106427     0.215246  Biso 1.000000     C
    C   1.0     0.562850     0.106427     0.215246  Biso 1.000000     C
    C   1.0     0.061381     0.011975     0.189642  Biso 1.000000     C
    C   1.0     0.561390     0.011975     0.189642  Biso 1.000000     C
    C   1.0     0.495543     0.726759     0.489190  Biso 1.000000     C
    C   1.0     0.995552     0.726759     0.489190  Biso 1.000000     C
    C   1.0     0.049391     0.746660     0.353289  Biso 1.000000     C
    C   1.0     0.549400     0.746660     0.353289  Biso 1.000000     C
    C   1.0     0.126245     0.747353     0.248201  Biso 1.000000     C
    C   1.0     0.626254     0.747353     0.248201  Biso 1.000000     C
    C   1.0     0.108983     0.715473     0.394207  Biso 1.000000     C
    C   1.0     0.608992     0.715473     0.394207  Biso 1.000000     C
    C   1.0     0.107910     0.691096     0.487930  Biso 1.000000     C
    C   1.0     0.607919     0.691096     0.487930  Biso 1.000000     C
    C   1.0     0.300001     0.508897     0.732006  Biso 1.000000     C
    C   1.0     0.800010     0.508897     0.732006  Biso 1.000000     C
    C   1.0     0.246305     0.645794     0.750417  Biso 1.000000     C
    C   1.0     0.746315     0.645793     0.750418  Biso 1.000000     C
    C   1.0     0.170153     0.751780     0.747707  Biso 1.000000     C
    C   1.0     0.670162     0.751780     0.747707  Biso 1.000000     C
    C   1.0     0.187171     0.604300     0.716150  Biso 1.000000     C
    C   1.0     0.687180     0.604299     0.716150  Biso 1.000000     C
    C   1.0     0.188644     0.510097     0.689542  Biso 1.000000     C
    C   1.0     0.688654     0.510097     0.689542  Biso 1.000000     C
    C   1.0     0.245603     0.773063     0.012998  Biso 1.000000     C
    C   1.0     0.745612     0.773063     0.012998  Biso 1.000000     C
    C   1.0     0.299465     0.754576     0.149097  Biso 1.000000     C
    C   1.0     0.799475     0.754576     0.149097  Biso 1.000000     C
    C   1.0     0.376307     0.754841     0.254258  Biso 1.000000     C
    C   1.0     0.876316     0.754841     0.254258  Biso 1.000000     C
    C   1.0     0.359076     0.785459     0.107939  Biso 1.000000     C
    C   1.0     0.859085     0.785459     0.107939  Biso 1.000000     C
    C   1.0     0.358020     0.808849     0.013949  Biso 1.000000     C
    C   1.0     0.858029     0.808849     0.013949  Biso 1.000000     C
    C   1.0     0.049959     0.989116     0.767651  Biso 1.000000     C
    C   1.0     0.549968     0.989116     0.767651  Biso 1.000000     C
    C   1.0     0.496291     0.851963     0.750750  Biso 1.000000     C
    C   1.0     0.996300     0.851963     0.750750  Biso 1.000000     C
    C   1.0     0.420168     0.745837     0.754514  Biso 1.000000     C
    C   1.0     0.920177     0.745837     0.754514  Biso 1.000000     C
    C   1.0     0.437177     0.893603     0.784727  Biso 1.000000     C
    C   1.0     0.937186     0.893603     0.784727  Biso 1.000000     C
    C   1.0     0.438637     0.988055     0.810331  Biso 1.000000     C
    C   1.0     0.938646     0.988055     0.810331  Biso 1.000000     C
    N   1.0     0.449833     0.303016     0.465158  Biso 1.000000     N
    N   1.0     0.949842     0.303016     0.465158  Biso 1.000000     N
    N   1.0     0.007667     0.246643     0.599906  Biso 1.000000     N
    N   1.0     0.507676     0.246643     0.599906  Biso 1.000000     N
    N   1.0     0.438540     0.233380     0.739291  Biso 1.000000     N
    N   1.0     0.938549     0.233380     0.739291  Biso 1.000000     N
    N   1.0     0.342691     0.283314     0.674305  Biso 1.000000     N
    N   1.0     0.842700     0.283314     0.674305  Biso 1.000000     N
    N   1.0     0.253964     0.537018     0.301753  Biso 1.000000     N
    N   1.0     0.753974     0.537018     0.301753  Biso 1.000000     N
    N   1.0     0.196961     0.400978     0.240714  Biso 1.000000     N
    N   1.0     0.696970     0.400978     0.240713  Biso 1.000000     N
    N   1.0     0.265668     0.260802     0.229709  Biso 1.000000     N
    N   1.0     0.765678     0.260802     0.229709  Biso 1.000000     N
    N   1.0     0.360757     0.326560     0.284452  Biso 1.000000     N
    N   1.0     0.860766     0.326560     0.284452  Biso 1.000000     N
    N   1.0     0.199729     0.197676     0.032893  Biso 1.000000     N
    N   1.0     0.699739     0.197676     0.032893  Biso 1.000000     N
    N   1.0     0.257618     0.252693     0.897580  Biso 1.000000     N
    N   1.0     0.757627     0.252692     0.897580  Biso 1.000000     N
    N   1.0     0.188484     0.264631     0.758099  Biso 1.000000     N
    N   1.0     0.688494     0.264631     0.758099  Biso 1.000000     N
    N   1.0     0.092614     0.215161     0.823432  Biso 1.000000     N
    N   1.0     0.592624     0.215161     0.823432  Biso 1.000000     N
    N   1.0     0.004004     0.964879     0.198980  Biso 1.000000     N
    N   1.0     0.504013     0.964879     0.198980  Biso 1.000000     N
    N   1.0     0.446988     0.101320     0.258620  Biso 1.000000     N
    N   1.0     0.946998     0.101320     0.258620  Biso 1.000000     N
    N   1.0     0.015677     0.241671     0.268212  Biso 1.000000     N
    N   1.0     0.515686     0.241672     0.268212  Biso 1.000000     N
    N   1.0     0.110730     0.175699     0.213896  Biso 1.000000     N
    N   1.0     0.610739     0.175699     0.213896  Biso 1.000000     N
    N   1.0     0.050185     0.697014     0.534816  Biso 1.000000     N
    N   1.0     0.550194     0.697014     0.534816  Biso 1.000000     N
    N   1.0     0.492351     0.753387     0.400067  Biso 1.000000     N
    N   1.0     0.992360     0.753387     0.400067  Biso 1.000000     N
    N   1.0     0.061478     0.766650     0.260682  Biso 1.000000     N
    N   1.0     0.561487     0.766650     0.260682  Biso 1.000000     N
    N   1.0     0.157327     0.716716     0.325668  Biso 1.000000     N
    N   1.0     0.657336     0.716716     0.325668  Biso 1.000000     N
    N   1.0     0.246054     0.463013     0.698221  Biso 1.000000     N
    N   1.0     0.746063     0.463013     0.698221  Biso 1.000000     N
    N   1.0     0.303057     0.599052     0.759260  Biso 1.000000     N
    N   1.0     0.803066     0.599052     0.759260  Biso 1.000000     N
    N   1.0     0.234349     0.739228     0.770264  Biso 1.000000     N
    N   1.0     0.734359     0.739228     0.770264  Biso 1.000000     N
    N   1.0     0.139261     0.673470     0.715521  Biso 1.000000     N
    N   1.0     0.639270     0.673470     0.715521  Biso 1.000000     N
    N   1.0     0.300288     0.802354     0.967081  Biso 1.000000     N
    N   1.0     0.800298     0.802354     0.967081  Biso 1.000000     N
    N   1.0     0.242400     0.747337     0.102393  Biso 1.000000     N
    N   1.0     0.742409     0.747338     0.102393  Biso 1.000000     N
    N   1.0     0.311533     0.735399     0.241875  Biso 1.000000     N
    N   1.0     0.811543     0.735400     0.241875  Biso 1.000000     N
    N   1.0     0.407404     0.784870     0.176541  Biso 1.000000     N
    N   1.0     0.907413     0.784870     0.176541  Biso 1.000000     N
    N   1.0     0.496014     0.035151     0.800993  Biso 1.000000     N
    N   1.0     0.996024     0.035151     0.800993  Biso 1.000000     N
    N   1.0     0.053029     0.898710     0.741353  Biso 1.000000     N
    N   1.0     0.553039     0.898710     0.741354  Biso 1.000000     N
    N   1.0     0.484341     0.758359     0.731762  Biso 1.000000     N
    N   1.0     0.984350     0.758359     0.731762  Biso 1.000000     N
    N   1.0     0.389288     0.824331     0.786078  Biso 1.000000     N
    N   1.0     0.889297     0.824331     0.786077  Biso 1.000000     N
   Zn   1.0     0.455791     0.341509     0.324846  Biso 1.000000    Zn
   Zn   1.0     0.955800     0.341509     0.324846  Biso 1.000000    Zn
   Zn   1.0     0.247623     0.320787     0.659126  Biso 1.000000    Zn
   Zn   1.0     0.747632     0.320786     0.659126  Biso 1.000000    Zn
   Zn   1.0     0.205751     0.160570     0.173395  Biso 1.000000    Zn
   Zn   1.0     0.705760     0.160570     0.173395  Biso 1.000000    Zn
   Zn   1.0     0.497564     0.177501     0.838694  Biso 1.000000    Zn
   Zn   1.0     0.997574     0.177501     0.838694  Biso 1.000000    Zn
   Zn   1.0     0.044227     0.658521     0.675127  Biso 1.000000    Zn
   Zn   1.0     0.544237     0.658521     0.675127  Biso 1.000000    Zn
   Zn   1.0     0.252395     0.679244     0.340847  Biso 1.000000    Zn
   Zn   1.0     0.752404     0.679244     0.340847  Biso 1.000000    Zn
   Zn   1.0     0.294267     0.839461     0.826579  Biso 1.000000    Zn
   Zn   1.0     0.794276     0.839461     0.826579  Biso 1.000000    Zn
   Zn   1.0     0.002453     0.822529     0.161279  Biso 1.000000    Zn
   Zn   1.0     0.502463     0.822529     0.161279  Biso 1.000000    Zn
   Br   1.0    -0.000797     0.495040     0.311200  Biso 1.000000    Br
   Br   1.0     0.499212     0.495040     0.311200  Biso 1.000000    Br
   Br   1.0     0.203201     0.308923     0.505211  Biso 1.000000    Br
   Br   1.0     0.703210     0.308923     0.505211  Biso 1.000000    Br
   Br   1.0     0.249126     0.007203     0.188211  Biso 1.000000    Br
   Br   1.0     0.749135     0.007203     0.188211  Biso 1.000000    Br
   Br   1.0     0.453015     0.190639     0.992470  Biso 1.000000    Br
   Br   1.0     0.953025     0.190639     0.992470  Biso 1.000000    Br
   Br   1.0     0.500815     0.504990     0.688773  Biso 1.000000    Br
   Br   1.0     0.000000     0.504990     0.688773  Biso 1.000000    Br
   Br   1.0     0.296817     0.691107     0.494763  Biso 1.000000    Br
   Br   1.0     0.796827     0.691107     0.494763  Biso 1.000000    Br
   Br   1.0     0.250892     0.992827     0.811762  Biso 1.000000    Br
   Br   1.0     0.750901     0.992827     0.811762  Biso 1.000000    Br
   Br   1.0     0.047003     0.809391     0.007503  Biso 1.000000    Br
   Br   1.0     0.547012     0.809391     0.007503  Biso 1.000000    Br
