#======================================================================

# CRYSTAL DATA

#----------------------------------------------------------------------

data_VESTA_phase_1


_pd_phase_name                         MOF
_cell_length_a                         13.77200
_cell_length_b                         21.26100
_cell_length_c                         22.33100
_cell_angle_alpha                      72.05200
_cell_angle_beta                       78.14700
_cell_angle_gamma                      74.91300
_symmetry_space_group_name_H-M         "P 1"
_symmetry_Int_Tables_number            1

loop_
_symmetry_equiv_pos_as_xyz
   "x, y, z"

loop_
   _atom_site_label
   _atom_site_occupancy
   _atom_site_fract_x
   _atom_site_fract_y
   _atom_site_fract_z
   _atom_site_adp_type
   _atom_site_B_iso_or_equiv
   _atom_site_type_symbol
    H   1.0     0.157096     0.486451     0.340240  Biso 1.000000     H
    H   1.0     0.157097     0.486457     0.840248  Biso 1.000000     H
    H   1.0     0.156959     0.986526     0.340280  Biso 1.000000     H
    H   1.0     0.156959     0.986532     0.840289  Biso 1.000000     H
    H   1.0     0.657092     0.486451     0.340239  Biso 1.000000     H
    H   1.0     0.657093     0.486457     0.840248  Biso 1.000000     H
    H   1.0     0.656955     0.986526     0.340280  Biso 1.000000     H
    H   1.0     0.656955     0.986532     0.840288  Biso 1.000000     H
    H   1.0     0.101434     0.474585     0.161804  Biso 1.000000     H
    H   1.0     0.101435     0.474591     0.661812  Biso 1.000000     H
    H   1.0     0.101550     0.974782     0.161739  Biso 1.000000     H
    H   1.0     0.101549     0.974788     0.661748  Biso 1.000000     H
    H   1.0     0.601430     0.474585     0.161804  Biso 1.000000     H
    H   1.0     0.601430     0.474591     0.661812  Biso 1.000000     H
    H   1.0     0.601545     0.974782     0.161740  Biso 1.000000     H
    H   1.0     0.601544     0.974788     0.661748  Biso 1.000000     H
    H   1.0     0.196012     0.292074     0.306091  Biso 1.000000     H
    H   1.0     0.196013     0.292081     0.806099  Biso 1.000000     H
    H   1.0     0.195190     0.792196     0.306174  Biso 1.000000     H
    H   1.0     0.195192     0.792202     0.806182  Biso 1.000000     H
    H   1.0     0.696008     0.292074     0.306091  Biso 1.000000     H
    H   1.0     0.696009     0.292080     0.806099  Biso 1.000000     H
    H   1.0     0.695186     0.792196     0.306174  Biso 1.000000     H
    H   1.0     0.695187     0.792202     0.806182  Biso 1.000000     H
    H   1.0     0.093349     0.106924     0.075039  Biso 1.000000     H
    H   1.0     0.093350     0.106933     0.575044  Biso 1.000000     H
    H   1.0     0.092838     0.607009     0.075120  Biso 1.000000     H
    H   1.0     0.092840     0.607017     0.575125  Biso 1.000000     H
    H   1.0     0.593343     0.106924     0.075039  Biso 1.000000     H
    H   1.0     0.593344     0.106933     0.575044  Biso 1.000000     H
    H   1.0     0.592831     0.607009     0.075120  Biso 1.000000     H
    H   1.0     0.592833     0.607017     0.575125  Biso 1.000000     H
    H   1.0     0.478437     0.104297     0.059233  Biso 1.000000     H
    H   1.0     0.478437     0.104305     0.559239  Biso 1.000000     H
    H   1.0     0.477817     0.604445     0.059388  Biso 1.000000     H
    H   1.0     0.477818     0.604453     0.559394  Biso 1.000000     H
    H   1.0     0.978430     0.104296     0.059233  Biso 1.000000     H
    H   1.0     0.978430     0.104304     0.559239  Biso 1.000000     H
    H   1.0     0.977809     0.604445     0.059388  Biso 1.000000     H
    H   1.0     0.977810     0.604452     0.559394  Biso 1.000000     H
    H   1.0     0.343041     0.013461     0.159740  Biso 1.000000     H
    H   1.0     0.343041     0.013467     0.659748  Biso 1.000000     H
    H   1.0     0.342901     0.513538     0.159780  Biso 1.000000     H
    H   1.0     0.342900     0.513544     0.659789  Biso 1.000000     H
    H   1.0     0.843038     0.013461     0.159739  Biso 1.000000     H
    H   1.0     0.843038     0.013467     0.659748  Biso 1.000000     H
    H   1.0     0.842896     0.513538     0.159780  Biso 1.000000     H
    H   1.0     0.842898     0.513543     0.659789  Biso 1.000000     H
    H   1.0     0.398454     0.025206     0.338279  Biso 1.000000     H
    H   1.0     0.398454     0.025212     0.838287  Biso 1.000000     H
    H   1.0     0.398567     0.525402     0.338216  Biso 1.000000     H
    H   1.0     0.398567     0.525409     0.838224  Biso 1.000000     H
    H   1.0     0.898450     0.025206     0.338279  Biso 1.000000     H
    H   1.0     0.898449     0.025212     0.838288  Biso 1.000000     H
    H   1.0     0.898562     0.525402     0.338216  Biso 1.000000     H
    H   1.0     0.898563     0.525409     0.838224  Biso 1.000000     H
    H   1.0     0.304809     0.207791     0.193845  Biso 1.000000     H
    H   1.0     0.304810     0.207798     0.693853  Biso 1.000000     H
    H   1.0     0.303984     0.707914     0.193931  Biso 1.000000     H
    H   1.0     0.303988     0.707920     0.693939  Biso 1.000000     H
    H   1.0     0.804804     0.207791     0.193846  Biso 1.000000     H
    H   1.0     0.804805     0.207798     0.693854  Biso 1.000000     H
    H   1.0     0.803980     0.707914     0.193931  Biso 1.000000     H
    H   1.0     0.803982     0.707920     0.693939  Biso 1.000000     H
    H   1.0     0.407161     0.392976     0.424905  Biso 1.000000     H
    H   1.0     0.407163     0.392984     0.924909  Biso 1.000000     H
    H   1.0     0.406650     0.893059     0.424986  Biso 1.000000     H
    H   1.0     0.406651     0.893067     0.924990  Biso 1.000000     H
    H   1.0     0.907154     0.392976     0.424905  Biso 1.000000     H
    H   1.0     0.907156     0.392984     0.924909  Biso 1.000000     H
    H   1.0     0.906642     0.893059     0.424986  Biso 1.000000     H
    H   1.0     0.906643     0.893067     0.924990  Biso 1.000000     H
    H   1.0     0.022184     0.395542     0.440636  Biso 1.000000     H
    H   1.0     0.022184     0.395550     0.940641  Biso 1.000000     H
    H   1.0     0.021564     0.895687     0.440790  Biso 1.000000     H
    H   1.0     0.021563     0.895695     0.940796  Biso 1.000000     H
    H   1.0     0.522176     0.395542     0.440636  Biso 1.000000     H
    H   1.0     0.522177     0.395550     0.940642  Biso 1.000000     H
    H   1.0     0.521556     0.895687     0.440790  Biso 1.000000     H
    H   1.0     0.521556     0.895694     0.940796  Biso 1.000000     H
    C   1.0     0.183689     0.385232     0.329118  Biso 1.000000     C
    C   1.0     0.183691     0.385238     0.829125  Biso 1.000000     C
    C   1.0     0.183115     0.885321     0.329211  Biso 1.000000     C
    C   1.0     0.183115     0.885327     0.829218  Biso 1.000000     C
    C   1.0     0.683685     0.385232     0.329118  Biso 1.000000     C
    C   1.0     0.683686     0.385238     0.829125  Biso 1.000000     C
    C   1.0     0.683110     0.885321     0.329211  Biso 1.000000     C
    C   1.0     0.683111     0.885327     0.829218  Biso 1.000000     C
    C   1.0     0.155406     0.455834     0.309487  Biso 1.000000     C
    C   1.0     0.155407     0.455841     0.809495  Biso 1.000000     C
    C   1.0     0.155167     0.955934     0.309528  Biso 1.000000     C
    C   1.0     0.155167     0.955940     0.809537  Biso 1.000000     C
    C   1.0     0.655402     0.455835     0.309486  Biso 1.000000     C
    C   1.0     0.655403     0.455841     0.809494  Biso 1.000000     C
    C   1.0     0.655162     0.955934     0.309529  Biso 1.000000     C
    C   1.0     0.655163     0.955940     0.809537  Biso 1.000000     C
    C   1.0     0.128411     0.488056     0.248450  Biso 1.000000     C
    C   1.0     0.128412     0.488062     0.748458  Biso 1.000000     C
    C   1.0     0.128416     0.988188     0.248439  Biso 1.000000     C
    C   1.0     0.128415     0.988195     0.748447  Biso 1.000000     C
    C   1.0     0.628406     0.488056     0.248450  Biso 1.000000     C
    C   1.0     0.628407     0.488063     0.748458  Biso 1.000000     C
    C   1.0     0.628411     0.988189     0.248439  Biso 1.000000     C
    C   1.0     0.628411     0.988195     0.748447  Biso 1.000000     C
    C   1.0     0.124157     0.449383     0.208720  Biso 1.000000     C
    C   1.0     0.124158     0.449389     0.708728  Biso 1.000000     C
    C   1.0     0.124055     0.949554     0.208706  Biso 1.000000     C
    C   1.0     0.124054     0.949560     0.708714  Biso 1.000000     C
    C   1.0     0.624152     0.449383     0.208720  Biso 1.000000     C
    C   1.0     0.624154     0.449389     0.708728  Biso 1.000000     C
    C   1.0     0.624050     0.949554     0.208707  Biso 1.000000     C
    C   1.0     0.624050     0.949560     0.708715  Biso 1.000000     C
    C   1.0     0.144681     0.378758     0.230307  Biso 1.000000     C
    C   1.0     0.144682     0.378764     0.730314  Biso 1.000000     C
    C   1.0     0.144271     0.878937     0.230323  Biso 1.000000     C
    C   1.0     0.144271     0.878943     0.730330  Biso 1.000000     C
    C   1.0     0.644676     0.378758     0.230306  Biso 1.000000     C
    C   1.0     0.644677     0.378764     0.730314  Biso 1.000000     C
    C   1.0     0.644265     0.878936     0.230323  Biso 1.000000     C
    C   1.0     0.644266     0.878943     0.730331  Biso 1.000000     C
    C   1.0     0.177906     0.346917     0.289465  Biso 1.000000     C
    C   1.0     0.177908     0.346923     0.789473  Biso 1.000000     C
    C   1.0     0.177265     0.847042     0.289539  Biso 1.000000     C
    C   1.0     0.177266     0.847048     0.789547  Biso 1.000000     C
    C   1.0     0.677901     0.346917     0.289465  Biso 1.000000     C
    C   1.0     0.677903     0.346923     0.789473  Biso 1.000000     C
    C   1.0     0.677260     0.847042     0.289539  Biso 1.000000     C
    C   1.0     0.677261     0.847048     0.789547  Biso 1.000000     C
    C   1.0     0.217952     0.348921     0.392544  Biso 1.000000     C
    C   1.0     0.217951     0.348928     0.892551  Biso 1.000000     C
    C   1.0     0.217226     0.848985     0.392676  Biso 1.000000     C
    C   1.0     0.217228     0.848993     0.892683  Biso 1.000000     C
    C   1.0     0.717947     0.348922     0.392543  Biso 1.000000     C
    C   1.0     0.717946     0.348928     0.892551  Biso 1.000000     C
    C   1.0     0.717221     0.848986     0.392676  Biso 1.000000     C
    C   1.0     0.717220     0.848992     0.892683  Biso 1.000000     C
    C   1.0     0.103745     0.063884     0.225639  Biso 1.000000     C
    C   1.0     0.103742     0.063891     0.725648  Biso 1.000000     C
    C   1.0     0.103336     0.563743     0.225708  Biso 1.000000     C
    C   1.0     0.103338     0.563749     0.725716  Biso 1.000000     C
    C   1.0     0.603739     0.063885     0.225639  Biso 1.000000     C
    C   1.0     0.603735     0.063891     0.725648  Biso 1.000000     C
    C   1.0     0.603332     0.563743     0.225707  Biso 1.000000     C
    C   1.0     0.603329     0.563750     0.725716  Biso 1.000000     C
    C   1.0     0.128295     0.336543     0.191841  Biso 1.000000     C
    C   1.0     0.128296     0.336550     0.691849  Biso 1.000000     C
    C   1.0     0.127954     0.836841     0.191719  Biso 1.000000     C
    C   1.0     0.127955     0.836848     0.691726  Biso 1.000000     C
    C   1.0     0.628289     0.336543     0.191842  Biso 1.000000     C
    C   1.0     0.628292     0.336549     0.691849  Biso 1.000000     C
    C   1.0     0.627949     0.836841     0.191719  Biso 1.000000     C
    C   1.0     0.627949     0.836848     0.691726  Biso 1.000000     C
    C   1.0     0.057121     0.159807     0.485643  Biso 1.000000     C
    C   1.0     0.057124     0.159812     0.985647  Biso 1.000000     C
    C   1.0     0.056542     0.659848     0.485712  Biso 1.000000     C
    C   1.0     0.056544     0.659853     0.985717  Biso 1.000000     C
    C   1.0     0.557113     0.159808     0.485643  Biso 1.000000     C
    C   1.0     0.557116     0.159813     0.985648  Biso 1.000000     C
    C   1.0     0.556534     0.659849     0.485713  Biso 1.000000     C
    C   1.0     0.556536     0.659853     0.985717  Biso 1.000000     C
    C   1.0     0.316885     0.114666     0.170809  Biso 1.000000     C
    C   1.0     0.316885     0.114673     0.670817  Biso 1.000000     C
    C   1.0     0.316306     0.614756     0.170904  Biso 1.000000     C
    C   1.0     0.316308     0.614763     0.670911  Biso 1.000000     C
    C   1.0     0.816880     0.114667     0.170809  Biso 1.000000     C
    C   1.0     0.816880     0.114673     0.670816  Biso 1.000000     C
    C   1.0     0.816302     0.614757     0.170904  Biso 1.000000     C
    C   1.0     0.816303     0.614763     0.670911  Biso 1.000000     C
    C   1.0     0.344834     0.044053     0.190491  Biso 1.000000     C
    C   1.0     0.344834     0.044060     0.690499  Biso 1.000000     C
    C   1.0     0.344590     0.544154     0.190534  Biso 1.000000     C
    C   1.0     0.344592     0.544160     0.690542  Biso 1.000000     C
    C   1.0     0.844830     0.044054     0.190490  Biso 1.000000     C
    C   1.0     0.844830     0.044060     0.690499  Biso 1.000000     C
    C   1.0     0.844587     0.544154     0.190534  Biso 1.000000     C
    C   1.0     0.844587     0.544160     0.690542  Biso 1.000000     C
    C   1.0     0.371586     0.011799     0.251580  Biso 1.000000     C
    C   1.0     0.371586     0.011805     0.751588  Biso 1.000000     C
    C   1.0     0.371588     0.511931     0.251570  Biso 1.000000     C
    C   1.0     0.371589     0.511938     0.751578  Biso 1.000000     C
    C   1.0     0.871581     0.011799     0.251580  Biso 1.000000     C
    C   1.0     0.871581     0.011806     0.751588  Biso 1.000000     C
    C   1.0     0.871584     0.511932     0.251570  Biso 1.000000     C
    C   1.0     0.871583     0.511938     0.751579  Biso 1.000000     C
    C   1.0     0.375948     0.050433     0.291313  Biso 1.000000     C
    C   1.0     0.375947     0.050440     0.791321  Biso 1.000000     C
    C   1.0     0.375843     0.550605     0.291300  Biso 1.000000     C
    C   1.0     0.375845     0.550611     0.791308  Biso 1.000000     C
    C   1.0     0.875943     0.050433     0.291313  Biso 1.000000     C
    C   1.0     0.875942     0.050440     0.791321  Biso 1.000000     C
    C   1.0     0.875839     0.550605     0.291300  Biso 1.000000     C
    C   1.0     0.875839     0.550611     0.791308  Biso 1.000000     C
    C   1.0     0.355730     0.121051     0.269696  Biso 1.000000     C
    C   1.0     0.355731     0.121057     0.769704  Biso 1.000000     C
    C   1.0     0.355319     0.621229     0.269714  Biso 1.000000     C
    C   1.0     0.355320     0.621235     0.769722  Biso 1.000000     C
    C   1.0     0.855725     0.121051     0.269696  Biso 1.000000     C
    C   1.0     0.855725     0.121057     0.769704  Biso 1.000000     C
    C   1.0     0.855314     0.621229     0.269714  Biso 1.000000     C
    C   1.0     0.855316     0.621235     0.769722  Biso 1.000000     C
    C   1.0     0.322735     0.152945     0.210480  Biso 1.000000     C
    C   1.0     0.322736     0.152952     0.710488  Biso 1.000000     C
    C   1.0     0.322091     0.653071     0.210556  Biso 1.000000     C
    C   1.0     0.322093     0.653077     0.710564  Biso 1.000000     C
    C   1.0     0.822729     0.152945     0.210480  Biso 1.000000     C
    C   1.0     0.822731     0.152952     0.710488  Biso 1.000000     C
    C   1.0     0.822087     0.653071     0.210556  Biso 1.000000     C
    C   1.0     0.822088     0.653077     0.710564  Biso 1.000000     C
    C   1.0     0.282773     0.151000     0.107344  Biso 1.000000     C
    C   1.0     0.282775     0.151008     0.607351  Biso 1.000000     C
    C   1.0     0.282048     0.651067     0.107477  Biso 1.000000     C
    C   1.0     0.282048     0.651074     0.607484  Biso 1.000000     C
    C   1.0     0.782768     0.151001     0.107344  Biso 1.000000     C
    C   1.0     0.782769     0.151008     0.607351  Biso 1.000000     C
    C   1.0     0.782041     0.651067     0.107478  Biso 1.000000     C
    C   1.0     0.782044     0.651075     0.607484  Biso 1.000000     C
    C   1.0     0.396661     0.436244     0.274311  Biso 1.000000     C
    C   1.0     0.396655     0.436250     0.774320  Biso 1.000000     C
    C   1.0     0.396258     0.936103     0.274379  Biso 1.000000     C
    C   1.0     0.396257     0.936109     0.774388  Biso 1.000000     C
    C   1.0     0.896654     0.436244     0.274311  Biso 1.000000     C
    C   1.0     0.896658     0.436250     0.774319  Biso 1.000000     C
    C   1.0     0.896255     0.936103     0.274379  Biso 1.000000     C
    C   1.0     0.896254     0.936110     0.774387  Biso 1.000000     C
    C   1.0     0.372044     0.163149     0.308298  Biso 1.000000     C
    C   1.0     0.372046     0.163156     0.808305  Biso 1.000000     C
    C   1.0     0.371702     0.663446     0.308178  Biso 1.000000     C
    C   1.0     0.371707     0.663451     0.808186  Biso 1.000000     C
    C   1.0     0.872039     0.163149     0.308299  Biso 1.000000     C
    C   1.0     0.872040     0.163156     0.808306  Biso 1.000000     C
    C   1.0     0.871698     0.663446     0.308179  Biso 1.000000     C
    C   1.0     0.871699     0.663452     0.808186  Biso 1.000000     C
    C   1.0     0.443459     0.340140     0.014312  Biso 1.000000     C
    C   1.0     0.443461     0.340145     0.514317  Biso 1.000000     C
    C   1.0     0.442876     0.840181     0.014382  Biso 1.000000     C
    C   1.0     0.442879     0.840185     0.514386  Biso 1.000000     C
    C   1.0     0.943451     0.340141     0.014312  Biso 1.000000     C
    C   1.0     0.943453     0.340146     0.514317  Biso 1.000000     C
    C   1.0     0.942869     0.840180     0.014382  Biso 1.000000     C
    C   1.0     0.942872     0.840185     0.514386  Biso 1.000000     C
    N   1.0     0.481469     0.187400     0.448822  Biso 1.000000     N
    N   1.0     0.481471     0.187407     0.948828  Biso 1.000000     N
    N   1.0     0.480889     0.687405     0.448891  Biso 1.000000     N
    N   1.0     0.480890     0.687412     0.948897  Biso 1.000000     N
    N   1.0     0.981460     0.187400     0.448823  Biso 1.000000     N
    N   1.0     0.981462     0.187407     0.948828  Biso 1.000000     N
    N   1.0     0.980880     0.687405     0.448892  Biso 1.000000     N
    N   1.0     0.980881     0.687412     0.948897  Biso 1.000000     N
    N   1.0     0.021207     0.230635     0.396279  Biso 1.000000     N
    N   1.0     0.021207     0.230645     0.896287  Biso 1.000000     N
    N   1.0     0.020679     0.730533     0.396277  Biso 1.000000     N
    N   1.0     0.020680     0.730541     0.896284  Biso 1.000000     N
    N   1.0     0.521199     0.230636     0.396278  Biso 1.000000     N
    N   1.0     0.521199     0.230646     0.896286  Biso 1.000000     N
    N   1.0     0.520671     0.730533     0.396276  Biso 1.000000     N
    N   1.0     0.520672     0.730542     0.896283  Biso 1.000000     N
    N   1.0     0.114173     0.230678     0.400272  Biso 1.000000     N
    N   1.0     0.114174     0.230687     0.900280  Biso 1.000000     N
    N   1.0     0.113675     0.730546     0.400228  Biso 1.000000     N
    N   1.0     0.113675     0.730556     0.900236  Biso 1.000000     N
    N   1.0     0.614165     0.230677     0.400272  Biso 1.000000     N
    N   1.0     0.614166     0.230686     0.900280  Biso 1.000000     N
    N   1.0     0.613667     0.730546     0.400228  Biso 1.000000     N
    N   1.0     0.613667     0.730556     0.900237  Biso 1.000000     N
    N   1.0     0.139917     0.186740     0.455996  Biso 1.000000     N
    N   1.0     0.139918     0.186748     0.956002  Biso 1.000000     N
    N   1.0     0.139389     0.686699     0.455996  Biso 1.000000     N
    N   1.0     0.139391     0.686705     0.956002  Biso 1.000000     N
    N   1.0     0.639911     0.186740     0.455996  Biso 1.000000     N
    N   1.0     0.639912     0.186747     0.956002  Biso 1.000000     N
    N   1.0     0.639383     0.686698     0.455996  Biso 1.000000     N
    N   1.0     0.639383     0.686706     0.956003  Biso 1.000000     N
    N   1.0     0.050951     0.110751     0.040937  Biso 1.000000     N
    N   1.0     0.050951     0.110758     0.540943  Biso 1.000000     N
    N   1.0     0.050323     0.610886     0.041065  Biso 1.000000     N
    N   1.0     0.050324     0.610892     0.541070  Biso 1.000000     N
    N   1.0     0.550944     0.110751     0.040937  Biso 1.000000     N
    N   1.0     0.550944     0.110759     0.540943  Biso 1.000000     N
    N   1.0     0.550316     0.610886     0.041065  Biso 1.000000     N
    N   1.0     0.550317     0.610892     0.541070  Biso 1.000000     N
    N   1.0     0.019114     0.312581     0.051131  Biso 1.000000     N
    N   1.0     0.019116     0.312588     0.551137  Biso 1.000000     N
    N   1.0     0.018530     0.812587     0.051201  Biso 1.000000     N
    N   1.0     0.018532     0.812594     0.551207  Biso 1.000000     N
    N   1.0     0.519105     0.312582     0.051132  Biso 1.000000     N
    N   1.0     0.519107     0.312588     0.551137  Biso 1.000000     N
    N   1.0     0.518521     0.812586     0.051202  Biso 1.000000     N
    N   1.0     0.518523     0.812593     0.551208  Biso 1.000000     N
    N   1.0     0.479325     0.269451     0.103745  Biso 1.000000     N
    N   1.0     0.479325     0.269460     0.603753  Biso 1.000000     N
    N   1.0     0.478792     0.769348     0.103744  Biso 1.000000     N
    N   1.0     0.478793     0.769358     0.603751  Biso 1.000000     N
    N   1.0     0.979316     0.269452     0.103745  Biso 1.000000     N
    N   1.0     0.979317     0.269461     0.603752  Biso 1.000000     N
    N   1.0     0.978784     0.769348     0.103742  Biso 1.000000     N
    N   1.0     0.978785     0.769358     0.603750  Biso 1.000000     N
    N   1.0     0.386329     0.269439     0.099793  Biso 1.000000     N
    N   1.0     0.386329     0.269448     0.599801  Biso 1.000000     N
    N   1.0     0.385827     0.769306     0.099748  Biso 1.000000     N
    N   1.0     0.385827     0.769315     0.599756  Biso 1.000000     N
    N   1.0     0.886320     0.269439     0.099794  Biso 1.000000     N
    N   1.0     0.886321     0.269448     0.599802  Biso 1.000000     N
    N   1.0     0.885818     0.769306     0.099749  Biso 1.000000     N
    N   1.0     0.885819     0.769315     0.599757  Biso 1.000000     N
    N   1.0     0.360612     0.313288     0.044027  Biso 1.000000     N
    N   1.0     0.360612     0.313296     0.544034  Biso 1.000000     N
    N   1.0     0.360081     0.813245     0.044026  Biso 1.000000     N
    N   1.0     0.360082     0.813252     0.544032  Biso 1.000000     N
    N   1.0     0.860604     0.313289     0.044028  Biso 1.000000     N
    N   1.0     0.860605     0.313296     0.544034  Biso 1.000000     N
    N   1.0     0.860074     0.813245     0.044026  Biso 1.000000     N
    N   1.0     0.860075     0.813253     0.544033  Biso 1.000000     N
    N   1.0     0.449678     0.389101     0.458960  Biso 1.000000     N
    N   1.0     0.449679     0.389108     0.958965  Biso 1.000000     N
    N   1.0     0.449049     0.889234     0.459086  Biso 1.000000     N
    N   1.0     0.449049     0.889241     0.959092  Biso 1.000000     N
    N   1.0     0.949671     0.389101     0.458960  Biso 1.000000     N
    N   1.0     0.949672     0.389108     0.958965  Biso 1.000000     N
    N   1.0     0.949042     0.889234     0.459086  Biso 1.000000     N
    N   1.0     0.949042     0.889241     0.959092  Biso 1.000000     N
    O   1.0     0.290548     0.296444     0.396341  Biso 1.000000     O
    O   1.0     0.290549     0.296451     0.896350  Biso 1.000000     O
    O   1.0     0.289807     0.796503     0.396484  Biso 1.000000     O
    O   1.0     0.289808     0.796510     0.896493  Biso 1.000000     O
    O   1.0     0.790542     0.296444     0.396342  Biso 1.000000     O
    O   1.0     0.790543     0.296451     0.896350  Biso 1.000000     O
    O   1.0     0.789801     0.796503     0.396485  Biso 1.000000     O
    O   1.0     0.789803     0.796511     0.896493  Biso 1.000000     O
    O   1.0     0.172187     0.371968     0.439604  Biso 1.000000     O
    O   1.0     0.172188     0.371977     0.939610  Biso 1.000000     O
    O   1.0     0.171426     0.872025     0.439734  Biso 1.000000     O
    O   1.0     0.171424     0.872032     0.939741  Biso 1.000000     O
    O   1.0     0.672181     0.371967     0.439604  Biso 1.000000     O
    O   1.0     0.672182     0.371977     0.939610  Biso 1.000000     O
    O   1.0     0.671418     0.872025     0.439734  Biso 1.000000     O
    O   1.0     0.671419     0.872033     0.939741  Biso 1.000000     O
    O   1.0     0.103017     0.098495     0.263530  Biso 1.000000     O
    O   1.0     0.103018     0.098501     0.763539  Biso 1.000000     O
    O   1.0     0.102259     0.598375     0.263655  Biso 1.000000     O
    O   1.0     0.102258     0.598381     0.763663  Biso 1.000000     O
    O   1.0     0.603013     0.098495     0.263530  Biso 1.000000     O
    O   1.0     0.603013     0.098501     0.763539  Biso 1.000000     O
    O   1.0     0.602254     0.598375     0.263654  Biso 1.000000     O
    O   1.0     0.602257     0.598382     0.763662  Biso 1.000000     O
    O   1.0     0.084031     0.092252     0.168824  Biso 1.000000     O
    O   1.0     0.084031     0.092259     0.668833  Biso 1.000000     O
    O   1.0     0.083690     0.592078     0.168886  Biso 1.000000     O
    O   1.0     0.083689     0.592085     0.668895  Biso 1.000000     O
    O   1.0     0.584025     0.092252     0.168824  Biso 1.000000     O
    O   1.0     0.584027     0.092259     0.668832  Biso 1.000000     O
    O   1.0     0.583683     0.592078     0.168886  Biso 1.000000     O
    O   1.0     0.583684     0.592084     0.668894  Biso 1.000000     O
    O   1.0     0.149932     0.355330     0.132414  Biso 1.000000     O
    O   1.0     0.149934     0.355335     0.632422  Biso 1.000000     O
    O   1.0     0.149731     0.855874     0.132295  Biso 1.000000     O
    O   1.0     0.149735     0.855879     0.632302  Biso 1.000000     O
    O   1.0     0.649925     0.355330     0.132414  Biso 1.000000     O
    O   1.0     0.649926     0.355336     0.632422  Biso 1.000000     O
    O   1.0     0.649725     0.855874     0.132295  Biso 1.000000     O
    O   1.0     0.649729     0.855879     0.632302  Biso 1.000000     O
    O   1.0     0.092116     0.283577     0.224396  Biso 1.000000     O
    O   1.0     0.092118     0.283583     0.724404  Biso 1.000000     O
    O   1.0     0.091777     0.783845     0.224091  Biso 1.000000     O
    O   1.0     0.091779     0.783851     0.724098  Biso 1.000000     O
    O   1.0     0.592109     0.283577     0.224396  Biso 1.000000     O
    O   1.0     0.592110     0.283584     0.724404  Biso 1.000000     O
    O   1.0     0.591770     0.783846     0.224091  Biso 1.000000     O
    O   1.0     0.591772     0.783852     0.724098  Biso 1.000000     O
    O   1.0     0.210197     0.203486     0.103535  Biso 1.000000     O
    O   1.0     0.210197     0.203492     0.603543  Biso 1.000000     O
    O   1.0     0.209447     0.703542     0.103677  Biso 1.000000     O
    O   1.0     0.209447     0.703549     0.603685  Biso 1.000000     O
    O   1.0     0.710191     0.203486     0.103536  Biso 1.000000     O
    O   1.0     0.710192     0.203493     0.603544  Biso 1.000000     O
    O   1.0     0.709441     0.703543     0.103678  Biso 1.000000     O
    O   1.0     0.709441     0.703549     0.603686  Biso 1.000000     O
    O   1.0     0.328568     0.127959     0.060286  Biso 1.000000     O
    O   1.0     0.328567     0.127965     0.560293  Biso 1.000000     O
    O   1.0     0.327816     0.628020     0.060418  Biso 1.000000     O
    O   1.0     0.327816     0.628029     0.560425  Biso 1.000000     O
    O   1.0     0.828561     0.127958     0.060286  Biso 1.000000     O
    O   1.0     0.828560     0.127965     0.560293  Biso 1.000000     O
    O   1.0     0.827810     0.628021     0.060418  Biso 1.000000     O
    O   1.0     0.827810     0.628028     0.560425  Biso 1.000000     O
    O   1.0     0.397745     0.401613     0.236362  Biso 1.000000     O
    O   1.0     0.397747     0.401620     0.736369  Biso 1.000000     O
    O   1.0     0.396984     0.901493     0.236487  Biso 1.000000     O
    O   1.0     0.396984     0.901499     0.736496  Biso 1.000000     O
    O   1.0     0.897743     0.401614     0.236361  Biso 1.000000     O
    O   1.0     0.897741     0.401620     0.736370  Biso 1.000000     O
    O   1.0     0.896978     0.901493     0.236488  Biso 1.000000     O
    O   1.0     0.896977     0.901499     0.736496  Biso 1.000000     O
    O   1.0     0.416302     0.407907     0.331133  Biso 1.000000     O
    O   1.0     0.416305     0.407913     0.831141  Biso 1.000000     O
    O   1.0     0.415973     0.907735     0.331194  Biso 1.000000     O
    O   1.0     0.415973     0.907742     0.831202  Biso 1.000000     O
    O   1.0     0.916297     0.407907     0.331133  Biso 1.000000     O
    O   1.0     0.916295     0.407913     0.831142  Biso 1.000000     O
    O   1.0     0.915966     0.907735     0.331194  Biso 1.000000     O
    O   1.0     0.915966     0.907742     0.831203  Biso 1.000000     O
    O   1.0     0.350271     0.144119     0.367723  Biso 1.000000     O
    O   1.0     0.350275     0.144125     0.867730  Biso 1.000000     O
    O   1.0     0.350065     0.644660     0.367606  Biso 1.000000     O
    O   1.0     0.350064     0.644666     0.867613  Biso 1.000000     O
    O   1.0     0.850265     0.144119     0.367723  Biso 1.000000     O
    O   1.0     0.850269     0.144125     0.867730  Biso 1.000000     O
    O   1.0     0.850057     0.644660     0.367606  Biso 1.000000     O
    O   1.0     0.850059     0.644665     0.867613  Biso 1.000000     O
    O   1.0     0.408220     0.216144     0.275922  Biso 1.000000     O
    O   1.0     0.408222     0.216151     0.775928  Biso 1.000000     O
    O   1.0     0.407887     0.716410     0.275623  Biso 1.000000     O
    O   1.0     0.407887     0.716417     0.775631  Biso 1.000000     O
    O   1.0     0.908213     0.216145     0.275922  Biso 1.000000     O
    O   1.0     0.908215     0.216151     0.775928  Biso 1.000000     O
    O   1.0     0.907880     0.716411     0.275624  Biso 1.000000     O
    O   1.0     0.907881     0.716417     0.775632  Biso 1.000000     O
   Cd   1.0     0.439900     0.298298     0.310827  Biso 1.000000    Cd
   Cd   1.0     0.439901     0.298304     0.810835  Biso 1.000000    Cd
   Cd   1.0     0.439325     0.798258     0.310905  Biso 1.000000    Cd
   Cd   1.0     0.439326     0.798265     0.810913  Biso 1.000000    Cd
   Cd   1.0     0.939894     0.298298     0.310827  Biso 1.000000    Cd
   Cd   1.0     0.939895     0.298304     0.810835  Biso 1.000000    Cd
   Cd   1.0     0.939318     0.798258     0.310905  Biso 1.000000    Cd
   Cd   1.0     0.939319     0.798265     0.810913  Biso 1.000000    Cd
   Cd   1.0     0.310251     0.182605     0.456423  Biso 1.000000    Cd
   Cd   1.0     0.310253     0.182612     0.956429  Biso 1.000000    Cd
   Cd   1.0     0.309569     0.682773     0.456590  Biso 1.000000    Cd
   Cd   1.0     0.309571     0.682778     0.956595  Biso 1.000000    Cd
   Cd   1.0     0.810244     0.182605     0.456424  Biso 1.000000    Cd
   Cd   1.0     0.810246     0.182611     0.956429  Biso 1.000000    Cd
   Cd   1.0     0.809562     0.682772     0.456590  Biso 1.000000    Cd
   Cd   1.0     0.809563     0.682779     0.956595  Biso 1.000000    Cd
   Cd   1.0     0.060678     0.201730     0.189115  Biso 1.000000    Cd
   Cd   1.0     0.060679     0.201736     0.689123  Biso 1.000000    Cd
   Cd   1.0     0.060097     0.701689     0.189192  Biso 1.000000    Cd
   Cd   1.0     0.060098     0.701695     0.689199  Biso 1.000000    Cd
   Cd   1.0     0.560672     0.201730     0.189115  Biso 1.000000    Cd
   Cd   1.0     0.560673     0.201736     0.689123  Biso 1.000000    Cd
   Cd   1.0     0.560091     0.701689     0.189192  Biso 1.000000    Cd
   Cd   1.0     0.560092     0.701695     0.689200  Biso 1.000000    Cd
   Cd   1.0     0.190432     0.317217     0.043433  Biso 1.000000    Cd
   Cd   1.0     0.190434     0.317223     0.543438  Biso 1.000000    Cd
   Cd   1.0     0.189746     0.817383     0.043599  Biso 1.000000    Cd
   Cd   1.0     0.189748     0.817390     0.543604  Biso 1.000000    Cd
   Cd   1.0     0.690425     0.317217     0.043433  Biso 1.000000    Cd
   Cd   1.0     0.690426     0.317223     0.543438  Biso 1.000000    Cd
   Cd   1.0     0.689738     0.817383     0.043599  Biso 1.000000    Cd
   Cd   1.0     0.689740     0.817389     0.543605  Biso 1.000000    Cd
