#======================================================================

# CRYSTAL DATA

#----------------------------------------------------------------------

data_VESTA_phase_1


_pd_phase_name                         MOF
_cell_length_a                         12.17300
_cell_length_b                         15.24100
_cell_length_c                         16.96300
_cell_angle_alpha                      90.01700
_cell_angle_beta                       93.10500
_cell_angle_gamma                      89.93500
_symmetry_space_group_name_H-M         "P 1"
_symmetry_Int_Tables_number            1

loop_
_symmetry_equiv_pos_as_xyz
   "x, y, z"

loop_
   _atom_site_label
   _atom_site_occupancy
   _atom_site_fract_x
   _atom_site_fract_y
   _atom_site_fract_z
   _atom_site_adp_type
   _atom_site_B_iso_or_equiv
   _atom_site_type_symbol
    H   1.0     0.550786     0.473268     0.429418  Biso 1.000000     H
    H   1.0     0.645616     0.450493     0.561074  Biso 1.000000     H
    H   1.0     0.939404     0.569647     0.477106  Biso 1.000000     H
    H   1.0     0.844099     0.590279     0.345410  Biso 1.000000     H
    H   1.0     0.325055     0.413238     0.178887  Biso 1.000000     H
    H   1.0     0.183115     0.296843     0.167470  Biso 1.000000     H
    H   1.0     0.248000     0.231887     0.413707  Biso 1.000000     H
    H   1.0     0.386672     0.351188     0.425039  Biso 1.000000     H
    H   1.0     0.298534     0.593726     0.311131  Biso 1.000000     H
    H   1.0     0.152411     0.703102     0.332991  Biso 1.000000     H
    H   1.0     0.298882     0.878183     0.168265  Biso 1.000000     H
    H   1.0     0.447330     0.769086     0.149686  Biso 1.000000     H
    H   1.0     0.862029     0.547175     0.060027  Biso 1.000000     H
    H   1.0     0.738515     0.540657     0.171065  Biso 1.000000     H
    H   1.0     0.629571     0.391156     0.917843  Biso 1.000000     H
    H   1.0     0.508212     0.383751     0.030696  Biso 1.000000     H
    H   1.0     0.550822     0.026301     0.929238  Biso 1.000000     H
    H   1.0     0.645504     0.049294     0.060915  Biso 1.000000     H
    H   1.0     0.939837     0.930323     0.977034  Biso 1.000000     H
    H   1.0     0.844657     0.909473     0.845337  Biso 1.000000     H
    H   1.0     0.325343     0.086380     0.678759  Biso 1.000000     H
    H   1.0     0.183472     0.203094     0.667385  Biso 1.000000     H
    H   1.0     0.248387     0.267945     0.913656  Biso 1.000000     H
    H   1.0     0.386986     0.148347     0.924934  Biso 1.000000     H
    H   1.0     0.299333     0.905311     0.812120  Biso 1.000000     H
    H   1.0     0.152958     0.796367     0.833875  Biso 1.000000     H
    H   1.0     0.297275     0.621956     0.667279  Biso 1.000000     H
    H   1.0     0.446045     0.730532     0.648862  Biso 1.000000     H
    H   1.0     0.862878     0.952597     0.559563  Biso 1.000000     H
    H   1.0     0.739148     0.958200     0.670579  Biso 1.000000     H
    H   1.0     0.629516     0.108760     0.417991  Biso 1.000000     H
    H   1.0     0.507962     0.115192     0.530788  Biso 1.000000     H
    H   1.0     0.449174     0.973670     0.070744  Biso 1.000000     H
    H   1.0     0.354486     0.950661     0.939072  Biso 1.000000     H
    H   1.0     0.060162     0.069654     0.022946  Biso 1.000000     H
    H   1.0     0.155348     0.090519     0.154639  Biso 1.000000     H
    H   1.0     0.674683     0.913624     0.321219  Biso 1.000000     H
    H   1.0     0.816549     0.796908     0.332592  Biso 1.000000     H
    H   1.0     0.751590     0.732027     0.086332  Biso 1.000000     H
    H   1.0     0.612994     0.851628     0.075054  Biso 1.000000     H
    H   1.0     0.700658     0.094670     0.187866  Biso 1.000000     H
    H   1.0     0.847032     0.203613     0.166104  Biso 1.000000     H
    H   1.0     0.702735     0.378025     0.332709  Biso 1.000000     H
    H   1.0     0.553966     0.269449     0.351132  Biso 1.000000     H
    H   1.0     0.137138     0.047376     0.440425  Biso 1.000000     H
    H   1.0     0.260859     0.041773     0.329404  Biso 1.000000     H
    H   1.0     0.370498     0.891197     0.581983  Biso 1.000000     H
    H   1.0     0.492040     0.884759     0.469180  Biso 1.000000     H
    H   1.0     0.449185     0.526673     0.570567  Biso 1.000000     H
    H   1.0     0.354362     0.549449     0.438909  Biso 1.000000     H
    H   1.0     0.060546     0.430346     0.522884  Biso 1.000000     H
    H   1.0     0.155842     0.409713     0.654581  Biso 1.000000     H
    H   1.0     0.674932     0.586730     0.821111  Biso 1.000000     H
    H   1.0     0.816853     0.703138     0.832517  Biso 1.000000     H
    H   1.0     0.751965     0.768059     0.586273  Biso 1.000000     H
    H   1.0     0.613312     0.648744     0.574953  Biso 1.000000     H
    H   1.0     0.701409     0.406221     0.688854  Biso 1.000000     H
    H   1.0     0.847574     0.296877     0.667003  Biso 1.000000     H
    H   1.0     0.701145     0.121765     0.831722  Biso 1.000000     H
    H   1.0     0.552657     0.230828     0.850292  Biso 1.000000     H
    H   1.0     0.137941     0.452824     0.939957  Biso 1.000000     H
    H   1.0     0.261451     0.459319     0.828915  Biso 1.000000     H
    H   1.0     0.370453     0.608797     0.082138  Biso 1.000000     H
    H   1.0     0.491807     0.616181     0.969281  Biso 1.000000     H
    C   1.0     0.690496     0.534694     0.378732  Biso 1.000000     C
    C   1.0     0.635493     0.494612     0.440722  Biso 1.000000     C
    C   1.0     0.689055     0.481181     0.513887  Biso 1.000000     C
    C   1.0     0.799247     0.508207     0.528254  Biso 1.000000     C
    C   1.0     0.854349     0.548591     0.466712  Biso 1.000000     C
    C   1.0     0.801038     0.561170     0.393424  Biso 1.000000     C
    C   1.0     0.852758     0.495914     0.603453  Biso 1.000000     C
    C   1.0     0.364817     0.390582     0.302934  Biso 1.000000     C
    C   1.0     0.307171     0.373781     0.230106  Biso 1.000000     C
    C   1.0     0.228297     0.308330     0.223706  Biso 1.000000     C
    C   1.0     0.205480     0.256580     0.289891  Biso 1.000000     C
    C   1.0     0.264221     0.272191     0.362610  Biso 1.000000     C
    C   1.0     0.342227     0.338190     0.368804  Biso 1.000000     C
    C   1.0     0.126485     0.188722     0.283657  Biso 1.000000     C
    C   1.0     0.383925     0.674990     0.230397  Biso 1.000000     C
    C   1.0     0.299634     0.657242     0.282033  Biso 1.000000     C
    C   1.0     0.217535     0.718226     0.293619  Biso 1.000000     C
    C   1.0     0.216982     0.799180     0.253302  Biso 1.000000     C
    C   1.0     0.300202     0.816608     0.200595  Biso 1.000000     C
    C   1.0     0.382307     0.755759     0.189619  Biso 1.000000     C
    C   1.0     0.135421     0.863359     0.264515  Biso 1.000000     C
    C   1.0     0.614670     0.462070     0.108122  Biso 1.000000     C
    C   1.0     0.783880     0.512457     0.052907  Biso 1.000000     C
    C   1.0     0.714880     0.508860     0.115209  Biso 1.000000     C
    C   1.0     0.754214     0.469890     0.980812  Biso 1.000000     C
    C   1.0     0.653894     0.423077     0.973422  Biso 1.000000     C
    C   1.0     0.585985     0.419080     0.036163  Biso 1.000000     C
    C   1.0     0.823070     0.473617     0.916376  Biso 1.000000     C
    C   1.0     0.690791     0.964917     0.878627  Biso 1.000000     C
    C   1.0     0.635608     0.005029     0.940573  Biso 1.000000     C
    C   1.0     0.689085     0.018584     0.013756  Biso 1.000000     C
    C   1.0     0.799380     0.991662     0.028152  Biso 1.000000     C
    C   1.0     0.854691     0.951282     0.966615  Biso 1.000000     C
    C   1.0     0.801452     0.938581     0.893329  Biso 1.000000     C
    C   1.0     0.852812     0.000000     0.103353  Biso 1.000000     C
    C   1.0     0.365107     0.108991     0.802809  Biso 1.000000     C
    C   1.0     0.307469     0.125893     0.729988  Biso 1.000000     C
    C   1.0     0.228636     0.191516     0.723621  Biso 1.000000     C
    C   1.0     0.205852     0.243330     0.789826  Biso 1.000000     C
    C   1.0     0.264579     0.227598     0.862542  Biso 1.000000     C
    C   1.0     0.342540     0.161431     0.868707  Biso 1.000000     C
    C   1.0     0.126873     0.311346     0.783658  Biso 1.000000     C
    C   1.0     0.383675     0.824286     0.730467  Biso 1.000000     C
    C   1.0     0.299906     0.842010     0.782582  Biso 1.000000     C
    C   1.0     0.217681     0.781282     0.794118  Biso 1.000000     C
    C   1.0     0.216478     0.700632     0.753261  Biso 1.000000     C
    C   1.0     0.299137     0.683262     0.700050  Biso 1.000000     C
    C   1.0     0.381389     0.743840     0.689139  Biso 1.000000     C
    C   1.0     0.134874     0.636657     0.764505  Biso 1.000000     C
    C   1.0     0.614782     0.036587     0.607836  Biso 1.000000     C
    C   1.0     0.784486     0.987120     0.552568  Biso 1.000000     C
    C   1.0     0.715385     0.990174     0.614831  Biso 1.000000     C
    C   1.0     0.754544     0.029928     0.480658  Biso 1.000000     C
    C   1.0     0.653965     0.076575     0.473429  Biso 1.000000     C
    C   1.0     0.585952     0.080021     0.536112  Biso 1.000000     C
    C   1.0     0.823339     0.026448     0.416185  Biso 1.000000     C
    C   1.0     0.309210     0.035065     0.121352  Biso 1.000000     C
    C   1.0     0.364388     0.994941     0.059409  Biso 1.000000     C
    C   1.0     0.310908     0.981380     0.986228  Biso 1.000000     C
    C   1.0     0.200614     0.008305     0.971830  Biso 1.000000     C
    C   1.0     0.145308     0.048693     0.033365  Biso 1.000000     C
    C   1.0     0.198550     0.061402     0.106649  Biso 1.000000     C
    C   1.0     0.147178    -0.004065     0.896631  Biso 1.000000     C
    C   1.0     0.634897     0.891001     0.197174  Biso 1.000000     C
    C   1.0     0.692544     0.874104     0.269992  Biso 1.000000     C
    C   1.0     0.771375     0.808479     0.276359  Biso 1.000000     C
    C   1.0     0.794145     0.756656     0.210156  Biso 1.000000     C
    C   1.0     0.735407     0.772381     0.137444  Biso 1.000000     C
    C   1.0     0.657449     0.838549     0.131279  Biso 1.000000     C
    C   1.0     0.873122     0.688639     0.216325  Biso 1.000000     C
    C   1.0     0.616321     0.175701     0.269518  Biso 1.000000     C
    C   1.0     0.700088     0.157973     0.217402  Biso 1.000000     C
    C   1.0     0.782314     0.218699     0.205864  Biso 1.000000     C
    C   1.0     0.783521     0.299350     0.246720  Biso 1.000000     C
    C   1.0     0.700870     0.316719     0.299937  Biso 1.000000     C
    C   1.0     0.618616     0.256144     0.310850  Biso 1.000000     C
    C   1.0     0.865121     0.363327     0.235468  Biso 1.000000     C
    C   1.0     0.385220     0.963373     0.392138  Biso 1.000000     C
    C   1.0     0.215529     0.012851     0.447418  Biso 1.000000     C
    C   1.0     0.284622     0.009793     0.385151  Biso 1.000000     C
    C   1.0     0.245475     0.970042     0.519326  Biso 1.000000     C
    C   1.0     0.346048     0.923386     0.526547  Biso 1.000000     C
    C   1.0     0.414053     0.919935     0.463859  Biso 1.000000     C
    C   1.0     0.176681     0.973520     0.583801  Biso 1.000000     C
    C   1.0     0.309462     0.465274     0.621258  Biso 1.000000     C
    C   1.0     0.364472     0.505340     0.559264  Biso 1.000000     C
    C   1.0     0.310916     0.518770     0.486097  Biso 1.000000     C
    C   1.0     0.200720     0.491754     0.471730  Biso 1.000000     C
    C   1.0     0.145607     0.451388     0.533277  Biso 1.000000     C
    C   1.0     0.198914     0.438812     0.606567  Biso 1.000000     C
    C   1.0     0.147214     0.504046     0.396530  Biso 1.000000     C
    C   1.0     0.635165     0.609369     0.697062  Biso 1.000000     C
    C   1.0     0.692810     0.626183     0.769888  Biso 1.000000     C
    C   1.0     0.771676     0.691641     0.776281  Biso 1.000000     C
    C   1.0     0.794489     0.743387     0.710093  Biso 1.000000     C
    C   1.0     0.735751     0.727761     0.637375  Biso 1.000000     C
    C   1.0     0.657754     0.661755     0.631187  Biso 1.000000     C
    C   1.0     0.873480     0.811253     0.716319  Biso 1.000000     C
    C   1.0     0.616040     0.324939     0.769584  Biso 1.000000     C
    C   1.0     0.700330     0.342705     0.717952  Biso 1.000000     C
    C   1.0     0.782451     0.281739     0.706371  Biso 1.000000     C
    C   1.0     0.783025     0.200785     0.746688  Biso 1.000000     C
    C   1.0     0.699807     0.183340     0.799392  Biso 1.000000     C
    C   1.0     0.617680     0.244171     0.810363  Biso 1.000000     C
    C   1.0     0.864599     0.136619     0.735473  Biso 1.000000     C
    C   1.0     0.385320     0.537885     0.891856  Biso 1.000000     C
    C   1.0     0.216100     0.487528     0.947074  Biso 1.000000     C
    C   1.0     0.285097     0.491113     0.884771  Biso 1.000000     C
    C   1.0     0.245782     0.530089     0.019170  Biso 1.000000     C
    C   1.0     0.346116     0.576883     0.026559  Biso 1.000000     C
    C   1.0     0.414023     0.580868     0.963815  Biso 1.000000     C
    C   1.0     0.176929     0.526370     0.083608  Biso 1.000000     C
    N   1.0     0.878149     0.476887     0.861856  Biso 1.000000     N
    N   1.0     0.062887     0.130948     0.278690  Biso 1.000000     N
    N   1.0     0.070460     0.918912     0.272724  Biso 1.000000     N
    N   1.0     0.895856     0.484649     0.666102  Biso 1.000000     N
    N   1.0     0.878356     0.023247     0.361627  Biso 1.000000     N
    N   1.0     0.063241     0.369214     0.778797  Biso 1.000000     N
    N   1.0     0.069907     0.581252     0.772797  Biso 1.000000     N
    N   1.0     0.895887     0.015301     0.165995  Biso 1.000000     N
    N   1.0     0.121662     0.976717     0.638358  Biso 1.000000     N
    N   1.0     0.936751     0.630770     0.221187  Biso 1.000000     N
    N   1.0     0.930082     0.418734     0.227168  Biso 1.000000     N
    N   1.0     0.104099     0.984650     0.833991  Biso 1.000000     N
    N   1.0     0.121850     0.523103     0.138127  Biso 1.000000     N
    N   1.0     0.937075     0.869029     0.721278  Biso 1.000000     N
    N   1.0     0.929566     0.081072     0.727259  Biso 1.000000     N
    N   1.0     0.104123     0.515309     0.333878  Biso 1.000000     N
    O   1.0     0.643121     0.547328     0.307055  Biso 1.000000     O
    O   1.0     0.438776     0.455165     0.312558  Biso 1.000000     O
    O   1.0     0.462876     0.617359     0.216527  Biso 1.000000     O
    O   1.0     0.546786     0.456273     0.167036  Biso 1.000000     O
    O   1.0     0.643454     0.952127     0.806965  Biso 1.000000     O
    O   1.0     0.439066     0.044293     0.812407  Biso 1.000000     O
    O   1.0     0.462839     0.881612     0.716733  Biso 1.000000     O
    O   1.0     0.546628     0.041575     0.666597  Biso 1.000000     O
    O   1.0     0.356555     0.047875     0.193008  Biso 1.000000     O
    O   1.0     0.560944     0.955703     0.187575  Biso 1.000000     O
    O   1.0     0.537155     0.118379     0.283253  Biso 1.000000     O
    O   1.0     0.453377     0.958399     0.333378  Biso 1.000000     O
    O   1.0     0.356848     0.452624     0.692929  Biso 1.000000     O
    O   1.0     0.561215     0.544780     0.687438  Biso 1.000000     O
    O   1.0     0.537068     0.382554     0.783444  Biso 1.000000     O
    O   1.0     0.453203     0.543672     0.832940  Biso 1.000000     O
   Al   1.0     0.521432     0.518490     0.251439  Biso 1.000000    Al
   Al   1.0     0.521491     0.980399     0.751432  Biso 1.000000    Al
   Al   1.0     0.478510     0.019591     0.248549  Biso 1.000000    Al
   Al   1.0     0.478547     0.481444     0.748543  Biso 1.000000    Al
   Cu   1.0     0.972196     0.477723     0.771284  Biso 1.000000    Cu
   Cu   1.0     0.972319     0.022339     0.271029  Biso 1.000000    Cu
   Cu   1.0     0.027682     0.977639     0.728947  Biso 1.000000    Cu
   Cu   1.0     0.027798     0.522270     0.228694  Biso 1.000000    Cu
