#======================================================================

# CRYSTAL DATA

#----------------------------------------------------------------------

data_VESTA_phase_1


_pd_phase_name                         MOF
_cell_length_a                         12.79000
_cell_length_b                         21.47300
_cell_length_c                         21.46900
_cell_angle_alpha                      84.44000
_cell_angle_beta                       71.87500
_cell_angle_gamma                      71.81700
_symmetry_space_group_name_H-M         "P 1"
_symmetry_Int_Tables_number            1

loop_
_symmetry_equiv_pos_as_xyz
   "x, y, z"

loop_
   _atom_site_label
   _atom_site_occupancy
   _atom_site_fract_x
   _atom_site_fract_y
   _atom_site_fract_z
   _atom_site_adp_type
   _atom_site_B_iso_or_equiv
   _atom_site_type_symbol
    H   1.0     0.782995     0.758198     0.182478  Biso 1.000000     H
    H   1.0     0.049290     0.721053    -0.001830  Biso 1.000000     H
    H   1.0     0.691443     0.788308     0.003169  Biso 1.000000     H
    H   1.0     0.879550     0.915423     0.808072  Biso 1.000000     H
    H   1.0     0.034733     0.585745     0.814977  Biso 1.000000     H
    H   1.0     0.219762     0.742935     0.316244  Biso 1.000000     H
    H   1.0     0.258645     0.777298     0.500219  Biso 1.000000     H
    H   1.0     0.974594     0.711412     0.495951  Biso 1.000000     H
    H   1.0     0.088433     0.583531     0.691138  Biso 1.000000     H
    H   1.0     0.941972     0.913038     0.683982  Biso 1.000000     H
    H   1.0     0.961611     0.817534     0.257210  Biso 1.000000     H
    H   1.0     0.036175     0.000000     0.223865  Biso 1.000000     H
    H   1.0     0.683236     0.997353     0.290399  Biso 1.000000     H
    H   1.0     0.681841     0.192276     0.418545  Biso 1.000000     H
    H   1.0     0.842104     0.185386     0.088887  Biso 1.000000     H
    H   1.0     0.541070     0.683811     0.241878  Biso 1.000000     H
    H   1.0     0.767480     0.499494     0.280102  Biso 1.000000     H
    H   1.0     0.479728     0.504615     0.213022  Biso 1.000000     H
    H   1.0     0.781971     0.309506     0.086528  Biso 1.000000     H
    H   1.0     0.629866     0.316139     0.415933  Biso 1.000000     H
    H   1.0     0.216976     0.241805     0.817543  Biso 1.000000     H
    H   1.0     0.950681     0.278950     0.000000  Biso 1.000000     H
    H   1.0     0.308527     0.211693     0.996853  Biso 1.000000     H
    H   1.0     0.120419     0.084580     0.191952  Biso 1.000000     H
    H   1.0     0.965235     0.414258     0.185042  Biso 1.000000     H
    H   1.0     0.780211     0.257068     0.683778  Biso 1.000000     H
    H   1.0     0.741322     0.222707     0.499803  Biso 1.000000     H
    H   1.0     0.025375     0.288593     0.504070  Biso 1.000000     H
    H   1.0     0.911534     0.416473     0.308881  Biso 1.000000     H
    H   1.0     0.057997     0.086967     0.316042  Biso 1.000000     H
    H   1.0     0.038360     0.182470     0.742810  Biso 1.000000     H
    H   1.0     0.963794    -0.001547     0.776156  Biso 1.000000     H
    H   1.0     0.316733     0.002649     0.709621  Biso 1.000000     H
    H   1.0     0.318127     0.807726     0.581476  Biso 1.000000     H
    H   1.0     0.157861     0.814618     0.911134  Biso 1.000000     H
    H   1.0     0.458900     0.316192     0.758144  Biso 1.000000     H
    H   1.0     0.232488     0.500509     0.719921  Biso 1.000000     H
    H   1.0     0.520240     0.495389     0.787000  Biso 1.000000     H
    H   1.0     0.217997     0.690498     0.913494  Biso 1.000000     H
    H   1.0     0.370103     0.683863     0.584089  Biso 1.000000     H
    C   1.0     0.599139     0.796092     0.134060  Biso 1.000000     C
    C   1.0     0.015879     0.717382     0.128221  Biso 1.000000     C
    C   1.0     0.724275     0.776032     0.096785  Biso 1.000000     C
    C   1.0     0.808506     0.757115     0.129291  Biso 1.000000     C
    C   1.0     0.925397     0.737075     0.093919  Biso 1.000000     C
    C   1.0     0.958149     0.736438     0.025351  Biso 1.000000     C
    C   1.0     0.874031     0.754679     0.993202  Biso 1.000000     C
    C   1.0     0.757486     0.774272     0.028189  Biso 1.000000     C
    C   1.0     0.952942     0.690452     0.892277  Biso 1.000000     C
    C   1.0     0.892985     0.814232     0.889553  Biso 1.000000     C
    C   1.0     0.915812     0.869238     0.781275  Biso 1.000000     C
    C   1.0     0.927731     0.811262     0.817039  Biso 1.000000     C
    C   1.0     0.026407     0.630930     0.786490  Biso 1.000000     C
    C   1.0     0.984685     0.690286     0.819700  Biso 1.000000     C
    C   1.0     0.972368     0.750073     0.784396  Biso 1.000000     C
    C   1.0     0.025579     0.704982     0.364928  Biso 1.000000     C
    C   1.0     0.355065     0.782576     0.370364  Biso 1.000000     C
    C   1.0     0.091477     0.724342     0.402199  Biso 1.000000     C
    C   1.0     0.189668     0.743331     0.369451  Biso 1.000000     C
    C   1.0     0.249689     0.762649     0.404625  Biso 1.000000     C
    C   1.0     0.211290     0.762448     0.473164  Biso 1.000000     C
    C   1.0     0.112668     0.744301     0.505635  Biso 1.000000     C
    C   1.0     0.052096     0.725410     0.470858  Biso 1.000000     C
    C   1.0     0.030698     0.808218     0.606655  Biso 1.000000     C
    C   1.0     0.082577     0.684606     0.609382  Biso 1.000000     C
    C   1.0     0.056849     0.629652     0.717774  Biso 1.000000     C
    C   1.0     0.047383     0.687557     0.681935  Biso 1.000000     C
    C   1.0     0.949633     0.867891     0.712519  Biso 1.000000     C
    C   1.0     0.994106     0.808437     0.679284  Biso 1.000000     C
    C   1.0     0.005095     0.748688     0.714579  Biso 1.000000     C
    C   1.0     0.727767     0.866179     0.295510  Biso 1.000000     C
    C   1.0     0.138403     0.871609     0.217652  Biso 1.000000     C
    C   1.0     0.813769     0.903505     0.276568  Biso 1.000000     C
    C   1.0     0.931885     0.870754     0.257222  Biso 1.000000     C
    C   1.0     0.012115     0.905911     0.238026  Biso 1.000000     C
    C   1.0     0.973334     0.974463     0.238697  Biso 1.000000     C
    C   1.0     0.855679     0.006916     0.257313  Biso 1.000000     C
    C   1.0     0.775388     0.972186     0.276114  Biso 1.000000     C
    C   1.0     0.832569     0.107961     0.193627  Biso 1.000000     C
    C   1.0     0.770693     0.110565     0.317377  Biso 1.000000     C
    C   1.0     0.693188     0.218958     0.372291  Biso 1.000000     C
    C   1.0     0.737790     0.183148     0.314392  Biso 1.000000     C
    C   1.0     0.807692     0.213878     0.134002  Biso 1.000000     C
    C   1.0     0.796712     0.180599     0.193419  Biso 1.000000     C
    C   1.0     0.752230     0.215832     0.253168  Biso 1.000000     C
    C   1.0     0.396292     0.635388     0.204543  Biso 1.000000     C
    C   1.0     0.731012     0.629479     0.282876  Biso 1.000000     C
    C   1.0     0.500385     0.598138     0.224689  Biso 1.000000     C
    C   1.0     0.565100     0.630632     0.243303  Biso 1.000000     C
    C   1.0     0.660862     0.595218     0.263516  Biso 1.000000     C
    C   1.0     0.692601     0.526654     0.264562  Biso 1.000000     C
    C   1.0     0.627302     0.494501     0.246577  Biso 1.000000     C
    C   1.0     0.531324     0.529559     0.226879  Biso 1.000000     C
    C   1.0     0.646295     0.393491     0.310942  Biso 1.000000     C
    C   1.0     0.701218     0.390856     0.187372  Biso 1.000000     C
    C   1.0     0.775196     0.282657     0.132636  Biso 1.000000     C
    C   1.0     0.733132     0.318357     0.190484  Biso 1.000000     C
    C   1.0     0.663824     0.287672     0.370814  Biso 1.000000     C
    C   1.0     0.677571     0.320926     0.311330  Biso 1.000000     C
    C   1.0     0.720846     0.285653     0.251671  Biso 1.000000     C
    C   1.0     0.400832     0.203912     0.865962  Biso 1.000000     C
    C   1.0     0.984091     0.282623     0.871800  Biso 1.000000     C
    C   1.0     0.275695     0.223970     0.903236  Biso 1.000000     C
    C   1.0     0.191464     0.242885     0.870730  Biso 1.000000     C
    C   1.0     0.074573     0.262927     0.906102  Biso 1.000000     C
    C   1.0     0.041822     0.263563     0.974671  Biso 1.000000     C
    C   1.0     0.125940     0.245322     0.006820  Biso 1.000000     C
    C   1.0     0.242485     0.225728     0.971832  Biso 1.000000     C
    C   1.0     0.047028     0.309550     0.107744  Biso 1.000000     C
    C   1.0     0.106985     0.185771     0.110469  Biso 1.000000     C
    C   1.0     0.084157     0.130766     0.218747  Biso 1.000000     C
    C   1.0     0.072237     0.188741     0.182982  Biso 1.000000     C
    C   1.0     0.973561     0.369074     0.213530  Biso 1.000000     C
    C   1.0     0.015283     0.309717     0.180321  Biso 1.000000     C
    C   1.0     0.027600     0.249931     0.215625  Biso 1.000000     C
    C   1.0     0.974395     0.295018     0.635093  Biso 1.000000     C
    C   1.0     0.644908     0.217424     0.629657  Biso 1.000000     C
    C   1.0     0.908490     0.275664     0.597823  Biso 1.000000     C
    C   1.0     0.810292     0.256682     0.630570  Biso 1.000000     C
    C   1.0     0.750279     0.237357     0.595397  Biso 1.000000     C
    C   1.0     0.788675     0.237561     0.526857  Biso 1.000000     C
    C   1.0     0.887298     0.255707     0.494386  Biso 1.000000     C
    C   1.0     0.947869     0.274599     0.529163  Biso 1.000000     C
    C   1.0     0.969272     0.191787     0.393367  Biso 1.000000     C
    C   1.0     0.917390     0.315399     0.390639  Biso 1.000000     C
    C   1.0     0.943118     0.370352     0.282246  Biso 1.000000     C
    C   1.0     0.952583     0.312447     0.318086  Biso 1.000000     C
    C   1.0     0.050336     0.132113     0.287504  Biso 1.000000     C
    C   1.0     0.005863     0.191568     0.320737  Biso 1.000000     C
    C   1.0     0.994872     0.251317     0.285443  Biso 1.000000     C
    C   1.0     0.272204     0.133823     0.704511  Biso 1.000000     C
    C   1.0     0.861568     0.128395     0.782369  Biso 1.000000     C
    C   1.0     0.186201     0.096498     0.723453  Biso 1.000000     C
    C   1.0     0.068085     0.129249     0.742798  Biso 1.000000     C
    C   1.0     0.987855     0.094093     0.761995  Biso 1.000000     C
    C   1.0     0.026635     0.025541     0.761323  Biso 1.000000     C
    C   1.0     0.144290     0.993088     0.742707  Biso 1.000000     C
    C   1.0     0.224582     0.027818     0.723907  Biso 1.000000     C
    C   1.0     0.167396     0.892042     0.806394  Biso 1.000000     C
    C   1.0     0.229274     0.889438     0.682644  Biso 1.000000     C
    C   1.0     0.306780     0.781045     0.627730  Biso 1.000000     C
    C   1.0     0.262176     0.816855     0.685629  Biso 1.000000     C
    C   1.0     0.192274     0.786126     0.866020  Biso 1.000000     C
    C   1.0     0.203254     0.819405     0.806602  Biso 1.000000     C
    C   1.0     0.247736     0.784172     0.746854  Biso 1.000000     C
    C   1.0     0.603680     0.364615     0.795476  Biso 1.000000     C
    C   1.0     0.268959     0.370524     0.717144  Biso 1.000000     C
    C   1.0     0.499583     0.401866     0.775335  Biso 1.000000     C
    C   1.0     0.434865     0.369372     0.756723  Biso 1.000000     C
    C   1.0     0.339106     0.404785     0.736507  Biso 1.000000     C
    C   1.0     0.307366     0.473349     0.735462  Biso 1.000000     C
    C   1.0     0.372664     0.505503     0.753447  Biso 1.000000     C
    C   1.0     0.468643     0.470444     0.773145  Biso 1.000000     C
    C   1.0     0.353674     0.606512     0.689080  Biso 1.000000     C
    C   1.0     0.298751     0.609147     0.812650  Biso 1.000000     C
    C   1.0     0.224771     0.717347     0.867386  Biso 1.000000     C
    C   1.0     0.266836     0.681647     0.809538  Biso 1.000000     C
    C   1.0     0.336145     0.712331     0.629208  Biso 1.000000     C
    C   1.0     0.322397     0.679078     0.688692  Biso 1.000000     C
    C   1.0     0.279122     0.714350     0.748351  Biso 1.000000     C
    N   1.0     0.907914     0.753072     0.922455  Biso 1.000000     N
    N   1.0     0.073233     0.745693     0.576386  Biso 1.000000     N
    N   1.0     0.817557     0.077718     0.256200  Biso 1.000000     N
    N   1.0     0.659256     0.423797     0.248399  Biso 1.000000     N
    N   1.0     0.092056     0.246930     0.077566  Biso 1.000000     N
    N   1.0     0.926735     0.254312     0.423635  Biso 1.000000     N
    N   1.0     0.182411     0.922286     0.743821  Biso 1.000000     N
    N   1.0     0.340711     0.576207     0.751623  Biso 1.000000     N
    O   1.0     0.568813     0.802327     0.197267  Biso 1.000000     O
    O   1.0     0.524455     0.804966     0.104323  Biso 1.000000     O
    O   1.0     0.985353     0.706663     0.190909  Biso 1.000000     O
    O   1.0     0.119717     0.712498     0.096906  Biso 1.000000     O
    O   1.0     0.963848     0.640359     0.925220  Biso 1.000000     O
    O   1.0     0.854047     0.865762     0.920196  Biso 1.000000     O
    O   1.0     0.067484     0.699136     0.301661  Biso 1.000000     O
    O   1.0     0.928980     0.696258     0.394614  Biso 1.000000     O
    O   1.0     0.378019     0.794277     0.307869  Biso 1.000000     O
    O   1.0     0.421590     0.786806     0.401640  Biso 1.000000     O
    O   1.0     0.025762     0.858276     0.573711  Biso 1.000000     O
    O   1.0     0.118846     0.633184     0.578766  Biso 1.000000     O
    O   1.0     0.763762     0.802891     0.301119  Biso 1.000000     O
    O   1.0     0.622074     0.895882     0.304069  Biso 1.000000     O
    O   1.0     0.173578     0.809152     0.205728  Biso 1.000000     O
    O   1.0     0.209422     0.902836     0.213288  Biso 1.000000     O
    O   1.0     0.873244     0.074950     0.143583  Biso 1.000000     O
    O   1.0     0.759939     0.079785     0.368855  Biso 1.000000     O
    O   1.0     0.372983     0.698522     0.197636  Biso 1.000000     O
    O   1.0     0.330427     0.605694     0.196242  Biso 1.000000     O
    O   1.0     0.689528     0.692236     0.293312  Biso 1.000000     O
    O   1.0     0.829795     0.598094     0.287721  Biso 1.000000     O
    O   1.0     0.611093     0.426329     0.360878  Biso 1.000000     O
    O   1.0     0.710357     0.421475     0.135808  Biso 1.000000     O
    O   1.0     0.431158     0.197676     0.802754  Biso 1.000000     O
    O   1.0     0.475516     0.195036     0.895698  Biso 1.000000     O
    O   1.0     0.014618     0.293340     0.809112  Biso 1.000000     O
    O   1.0     0.880254     0.287506     0.903115  Biso 1.000000     O
    O   1.0     0.036126     0.359643     0.074801  Biso 1.000000     O
    O   1.0     0.145927     0.134240     0.079826  Biso 1.000000     O
    O   1.0     0.932486     0.300870     0.698360  Biso 1.000000     O
    O   1.0     0.070988     0.303748     0.605406  Biso 1.000000     O
    O   1.0     0.621951     0.205729     0.692153  Biso 1.000000     O
    O   1.0     0.578378     0.213199     0.598382  Biso 1.000000     O
    O   1.0     0.974211     0.141729     0.426311  Biso 1.000000     O
    O   1.0     0.881122     0.366822     0.421254  Biso 1.000000     O
    O   1.0     0.236209     0.197112     0.698902  Biso 1.000000     O
    O   1.0     0.377897     0.104121     0.695952  Biso 1.000000     O
    O   1.0     0.826394     0.190853     0.794292  Biso 1.000000     O
    O   1.0     0.790547     0.097169     0.786732  Biso 1.000000     O
    O   1.0     0.126721     0.925054     0.856438  Biso 1.000000     O
    O   1.0     0.240033     0.920218     0.631165  Biso 1.000000     O
    O   1.0     0.626987     0.301482     0.802387  Biso 1.000000     O
    O   1.0     0.669543     0.394310     0.803779  Biso 1.000000     O
    O   1.0     0.310442     0.307767     0.706710  Biso 1.000000     O
    O   1.0     0.170175     0.401909     0.712301  Biso 1.000000     O
    O   1.0     0.388877     0.573674     0.639144  Biso 1.000000     O
    O   1.0     0.289613     0.578529     0.864214  Biso 1.000000     O
   Ca   1.0     0.370372     0.806177     0.201339  Biso 1.000000    Ca
   Ca   1.0     0.878033     0.695129     0.297481  Biso 1.000000    Ca
   Ca   1.0     0.569969     0.798709     0.304996  Biso 1.000000    Ca
   Ca   1.0     0.178273     0.702598     0.194020  Biso 1.000000    Ca
   Ca   1.0     0.629599     0.193828     0.798682  Biso 1.000000    Ca
   Ca   1.0     0.121939     0.304873     0.702540  Biso 1.000000    Ca
   Ca   1.0     0.430002     0.201294     0.695025  Biso 1.000000    Ca
   Ca   1.0     0.821698     0.297407     0.806001  Biso 1.000000    Ca
