#======================================================================

# CRYSTAL DATA

#----------------------------------------------------------------------

data_VESTA_phase_1


_pd_phase_name                         MOF
_cell_length_a                         14.32200
_cell_length_b                         20.62700
_cell_length_c                         21.41100
_cell_angle_alpha                      89.92400
_cell_angle_beta                       90.05100
_cell_angle_gamma                      90.11600
_symmetry_space_group_name_H-M         "P 1"
_symmetry_Int_Tables_number            1

loop_
_symmetry_equiv_pos_as_xyz
   "x, y, z"

loop_
   _atom_site_label
   _atom_site_occupancy
   _atom_site_fract_x
   _atom_site_fract_y
   _atom_site_fract_z
   _atom_site_adp_type
   _atom_site_B_iso_or_equiv
   _atom_site_type_symbol
    H   1.0     0.710452     0.953056     0.932965  Biso 1.000000     H
    H   1.0     0.541674     0.824755     0.783909  Biso 1.000000     H
    H   1.0     0.630686     0.729664     0.097162  Biso 1.000000     H
    H   1.0     0.691696     0.222101     0.000000  Biso 1.000000     H
    H   1.0     0.543563     0.042445     0.034031  Biso 1.000000     H
    H   1.0     0.796917     0.047697     0.924267  Biso 1.000000     H
    H   1.0     0.573679     0.818018     0.052442  Biso 1.000000     H
    H   1.0     0.610529     0.680318     0.902731  Biso 1.000000     H
    H   1.0     0.636473     0.885222     0.867185  Biso 1.000000     H
    H   1.0     0.456983     0.835145     0.692575  Biso 1.000000     H
    H   1.0     0.557384     0.743885     0.525376  Biso 1.000000     H
    H   1.0     0.710922     0.722158     0.696965  Biso 1.000000     H
    H   1.0     0.638674     0.701285     0.204102  Biso 1.000000     H
    H   1.0     0.623248     0.499302     0.253411  Biso 1.000000     H
    H   1.0     0.572018     0.558428     0.063289  Biso 1.000000     H
    H   1.0     0.789180     0.047842     0.433193  Biso 1.000000     H
    H   1.0     0.959491     0.175929     0.284139  Biso 1.000000     H
    H   1.0     0.866185     0.270513     0.597246  Biso 1.000000     H
    H   1.0     0.808421     0.778004     0.506398  Biso 1.000000     H
    H   1.0     0.956791     0.957394     0.533446  Biso 1.000000     H
    H   1.0     0.702384     0.953398     0.424478  Biso 1.000000     H
    H   1.0     0.926028     0.181871     0.552678  Biso 1.000000     H
    H   1.0     0.890641     0.320694     0.403362  Biso 1.000000     H
    H   1.0     0.864822     0.116041     0.366793  Biso 1.000000     H
    H   1.0     0.043773     0.165270     0.192313  Biso 1.000000     H
    H   1.0     0.942571     0.257229     0.025328  Biso 1.000000     H
    H   1.0     0.790909     0.279338     0.197313  Biso 1.000000     H
    H   1.0     0.858467     0.298566     0.704600  Biso 1.000000     H
    H   1.0     0.875060     0.500432     0.753688  Biso 1.000000     H
    H   1.0     0.927506     0.441378     0.563937  Biso 1.000000     H
    H   1.0     0.289330     0.452231     0.568193  Biso 1.000000     H
    H   1.0     0.459777     0.323936     0.716253  Biso 1.000000     H
    H   1.0     0.368535     0.229513     0.402572  Biso 1.000000     H
    H   1.0     0.308427     0.721717     0.493756  Biso 1.000000     H
    H   1.0     0.455502     0.542333     0.466517  Biso 1.000000     H
    H   1.0     0.202485     0.546566     0.576644  Biso 1.000000     H
    H   1.0     0.423367     0.317480     0.447279  Biso 1.000000     H
    H   1.0     0.388687     0.179633     0.597591  Biso 1.000000     H
    H   1.0     0.364238     0.384508     0.632882  Biso 1.000000     H
    H   1.0     0.543849     0.334824     0.808076  Biso 1.000000     H
    H   1.0     0.442597     0.242875     0.975075  Biso 1.000000     H
    H   1.0     0.290152     0.220913     0.803107  Biso 1.000000     H
    H   1.0     0.359137     0.201325     0.295910  Biso 1.000000     H
    H   1.0     0.374981     0.999635     0.246261  Biso 1.000000     H
    H   1.0     0.427043     0.058175     0.436349  Biso 1.000000     H
    H   1.0     0.210932     0.547279     0.067298  Biso 1.000000     H
    H   1.0     0.041334     0.674499     0.215993  Biso 1.000000     H
    H   1.0     0.131368     0.770622     0.902679  Biso 1.000000     H
    H   1.0     0.192540     0.278140    -0.007825  Biso 1.000000     H
    H   1.0     0.044306     0.457341     0.965850  Biso 1.000000     H
    H   1.0     0.298020     0.453033     0.075520  Biso 1.000000     H
    H   1.0     0.074147     0.681678     0.947214  Biso 1.000000     H
    H   1.0     0.108548     0.819773     0.096982  Biso 1.000000     H
    H   1.0     0.136381     0.615102     0.132784  Biso 1.000000     H
    H   1.0     0.956555     0.663956     0.307356  Biso 1.000000     H
    H   1.0     0.057577     0.755226     0.474644  Biso 1.000000     H
    H   1.0     0.209966     0.778205     0.302925  Biso 1.000000     H
    H   1.0     0.139113     0.799155     0.795709  Biso 1.000000     H
    H   1.0     0.122934     0.001129     0.746650  Biso 1.000000     H
    H   1.0     0.070715     0.941375     0.936459  Biso 1.000000     H
    C   1.0     0.829170     0.176214     0.933792  Biso 1.000000     C
    C   1.0     0.751211     0.138392     0.962496  Biso 1.000000     C
    C   1.0     0.685605     0.170324     0.999809  Biso 1.000000     C
    C   1.0     0.611751     0.135410     0.025900  Biso 1.000000     C
    C   1.0     0.601992     0.068894     0.000000  Biso 1.000000     C
    C   1.0     0.668372     0.036691     0.977506  Biso 1.000000     C
    C   1.0     0.743705     0.071643     0.952395  Biso 1.000000     C
    C   1.0     0.538842     0.169078     0.064021  Biso 1.000000     C
    C   1.0     0.603496     0.924510     0.990650  Biso 1.000000     C
    C   1.0     0.608703     0.857650     0.963256  Biso 1.000000     C
    C   1.0     0.590873     0.805963     0.004212  Biso 1.000000     C
    C   1.0     0.591775     0.742128     0.982593  Biso 1.000000     C
    C   1.0     0.609713     0.730137     0.919451  Biso 1.000000     C
    C   1.0     0.625312     0.781206     0.877898  Biso 1.000000     C
    C   1.0     0.624911     0.845249     0.899775  Biso 1.000000     C
    C   1.0     0.644900     0.762336     0.811474  Biso 1.000000     C
    C   1.0     0.585984     0.780546     0.702789  Biso 1.000000     C
    C   1.0     0.509844     0.805678     0.669486  Biso 1.000000     C
    C   1.0     0.500397     0.793401     0.605617  Biso 1.000000     C
    C   1.0     0.420137     0.821359     0.570206  Biso 1.000000     C
    C   1.0     0.565235     0.754030     0.574862  Biso 1.000000     C
    C   1.0     0.640205     0.728013     0.608150  Biso 1.000000     C
    C   1.0     0.711842     0.686764     0.576256  Biso 1.000000     C
    C   1.0     0.651828     0.742015     0.671758  Biso 1.000000     C
    C   1.0     0.572019     0.683320     0.021905  Biso 1.000000     C
    C   1.0     0.603724     0.636340     0.127530  Biso 1.000000     C
    C   1.0     0.626350     0.651376     0.189426  Biso 1.000000     C
    C   1.0     0.634127     0.602284     0.234388  Biso 1.000000     C
    C   1.0     0.617734     0.537394     0.218352  Biso 1.000000     C
    C   1.0     0.595240     0.522722     0.156339  Biso 1.000000     C
    C   1.0     0.588563     0.571525     0.111056  Biso 1.000000     C
    C   1.0     0.660085     0.621518     0.299170  Biso 1.000000     C
    C   1.0     0.580035     0.454902     0.134472  Biso 1.000000     C
    C   1.0     0.669586     0.825194     0.433457  Biso 1.000000     C
    C   1.0     0.748422     0.862314     0.461879  Biso 1.000000     C
    C   1.0     0.814455     0.829879     0.498608  Biso 1.000000     C
    C   1.0     0.888490     0.864544     0.524798  Biso 1.000000     C
    C   1.0     0.898180     0.931196     0.513575  Biso 1.000000     C
    C   1.0     0.831655     0.963805     0.477140  Biso 1.000000     C
    C   1.0     0.755956     0.929153     0.452179  Biso 1.000000     C
    C   1.0     0.961764     0.830724     0.562642  Biso 1.000000     C
    C   1.0     0.897445     0.075776     0.490097  Biso 1.000000     C
    C   1.0     0.891834     0.142877     0.463073  Biso 1.000000     C
    C   1.0     0.909193     0.194228     0.504409  Biso 1.000000     C
    C   1.0     0.908412     0.258235     0.483092  Biso 1.000000     C
    C   1.0     0.891175     0.270753     0.419883  Biso 1.000000     C
    C   1.0     0.875967     0.220025     0.377971  Biso 1.000000     C
    C   1.0     0.876124     0.155793     0.399585  Biso 1.000000     C
    C   1.0     0.857334     0.239317     0.311423  Biso 1.000000     C
    C   1.0     0.915412     0.220450     0.202869  Biso 1.000000     C
    C   1.0    -0.009049     0.195001     0.169355  Biso 1.000000     C
    C   1.0    -0.000243     0.207285     0.105405  Biso 1.000000     C
    C   1.0     0.079166     0.178975     0.069563  Biso 1.000000     C
    C   1.0     0.935086     0.247071     0.074851  Biso 1.000000     C
    C   1.0     0.860770     0.273424     0.108375  Biso 1.000000     C
    C   1.0     0.789416     0.315285     0.076784  Biso 1.000000     C
    C   1.0     0.849593     0.259275     0.171975  Biso 1.000000     C
    C   1.0     0.928189     0.316579     0.522927  Biso 1.000000     C
    C   1.0     0.894428     0.363499     0.628087  Biso 1.000000     C
    C   1.0     0.871220     0.348458     0.689903  Biso 1.000000     C
    C   1.0     0.863601     0.397557     0.734739  Biso 1.000000     C
    C   1.0     0.880513     0.462398     0.718678  Biso 1.000000     C
    C   1.0     0.903628     0.477083     0.656781  Biso 1.000000     C
    C   1.0     0.910304     0.428289     0.611615  Biso 1.000000     C
    C   1.0     0.837736     0.378564     0.799594  Biso 1.000000     C
    C   1.0     0.919556     0.544908     0.634994  Biso 1.000000     C
    C   1.0     0.170672     0.674970     0.567676  Biso 1.000000     C
    C   1.0     0.248606     0.637582     0.538842  Biso 1.000000     C
    C   1.0     0.314291     0.669874     0.501651  Biso 1.000000     C
    C   1.0     0.387871     0.635181     0.475256  Biso 1.000000     C
    C   1.0     0.397274     0.568567     0.486574  Biso 1.000000     C
    C   1.0     0.330879     0.536047     0.523282  Biso 1.000000     C
    C   1.0     0.255798     0.570758     0.548620  Biso 1.000000     C
    C   1.0     0.460883     0.669124     0.437192  Biso 1.000000     C
    C   1.0     0.394411     0.423921     0.509031  Biso 1.000000     C
    C   1.0     0.390071     0.357001     0.536638  Biso 1.000000     C
    C   1.0     0.407116     0.305338     0.495682  Biso 1.000000     C
    C   1.0     0.406494     0.241472     0.517482  Biso 1.000000     C
    C   1.0     0.389526     0.229474     0.580797  Biso 1.000000     C
    C   1.0     0.374848     0.280518     0.622362  Biso 1.000000     C
    C   1.0     0.375085     0.344556     0.600301  Biso 1.000000     C
    C   1.0     0.355848     0.261653     0.688959  Biso 1.000000     C
    C   1.0     0.415024     0.279744     0.797526  Biso 1.000000     C
    C   1.0     0.490881     0.305120     0.831029  Biso 1.000000     C
    C   1.0     0.499901     0.292795     0.894961  Biso 1.000000     C
    C   1.0     0.579838     0.321126     0.930560  Biso 1.000000     C
    C   1.0     0.435009     0.253048     0.925556  Biso 1.000000     C
    C   1.0     0.360320     0.226774     0.892064  Biso 1.000000     C
    C   1.0     0.288527     0.185031     0.923607  Biso 1.000000     C
    C   1.0     0.349063     0.240927     0.828442  Biso 1.000000     C
    C   1.0     0.425320     0.182600     0.478212  Biso 1.000000     C
    C   1.0     0.394559     0.136184     0.372346  Biso 1.000000     C
    C   1.0     0.371655     0.151401     0.310500  Biso 1.000000     C
    C   1.0     0.363876     0.102461     0.265503  Biso 1.000000     C
    C   1.0     0.380571     0.037553     0.281395  Biso 1.000000     C
    C   1.0     0.403527     0.022697     0.343310  Biso 1.000000     C
    C   1.0     0.410174     0.071358     0.388641  Biso 1.000000     C
    C   1.0     0.337920     0.121801     0.200719  Biso 1.000000     C
    C   1.0     0.419355     0.954894     0.365180  Biso 1.000000     C
    C   1.0     0.330615     0.324943     0.066136  Biso 1.000000     C
    C   1.0     0.252222     0.362175     0.037430  Biso 1.000000     C
    C   1.0     0.186442     0.329921     0.000253  Biso 1.000000     C
    C   1.0     0.112466     0.364595     0.974130  Biso 1.000000     C
    C   1.0     0.102808     0.431116    -0.014306  Biso 1.000000     C
    C   1.0     0.169196     0.463577     0.022434  Biso 1.000000     C
    C   1.0     0.244663     0.428904     0.047483  Biso 1.000000     C
    C   1.0     0.039134     0.330912     0.936081  Biso 1.000000     C
    C   1.0     0.104363     0.575535     0.009137  Biso 1.000000     C
    C   1.0     0.108937     0.642401     0.036585  Biso 1.000000     C
    C   1.0     0.090890     0.693916     0.995503  Biso 1.000000     C
    C   1.0     0.091015     0.757772     0.017053  Biso 1.000000     C
    C   1.0     0.108340     0.769947     0.080273  Biso 1.000000     C
    C   1.0     0.124196     0.719037     0.121950  Biso 1.000000     C
    C   1.0     0.124597     0.654965     0.100124  Biso 1.000000     C
    C   1.0     0.143303     0.738165     0.188415  Biso 1.000000     C
    C   1.0     0.085318     0.719126     0.297122  Biso 1.000000     C
    C   1.0     0.000000     0.693577     0.330461  Biso 1.000000     C
    C   1.0     0.000370     0.705634     0.394384  Biso 1.000000     C
    C   1.0     0.920541     0.677427     0.430017  Biso 1.000000     C
    C   1.0     0.065153     0.745240     0.425123  Biso 1.000000     C
    C   1.0     0.139669     0.771790     0.391769  Biso 1.000000     C
    C   1.0     0.210905     0.813424     0.423792  Biso 1.000000     C
    C   1.0     0.151112     0.757960     0.328146  Biso 1.000000     C
    C   1.0     0.070923     0.816345     0.977530  Biso 1.000000     C
    C   1.0     0.103476     0.863762     0.872250  Biso 1.000000     C
    C   1.0     0.126505     0.848977     0.810418  Biso 1.000000     C
    C   1.0     0.134238     0.898181     0.765549  Biso 1.000000     C
    C   1.0     0.117424     0.962957     0.781629  Biso 1.000000     C
    C   1.0     0.094341     0.977391     0.843572  Biso 1.000000     C
    C   1.0     0.087725     0.928460     0.888752  Biso 1.000000     C
    C   1.0     0.160233     0.878992     0.700799  Biso 1.000000     C
    C   1.0     0.078352     0.045066     0.865484  Biso 1.000000     C
    N   1.0     0.661164     0.970236     0.962936  Biso 1.000000     N
    N   1.0     0.592699     0.795208     0.767017  Biso 1.000000     N
    N   1.0     0.600945     0.687151     0.083318  Biso 1.000000     N
    N   1.0     0.838877     0.030368     0.462808  Biso 1.000000     N
    N   1.0     0.908925     0.205887     0.267164  Biso 1.000000     N
    N   1.0     0.897143     0.312793     0.583861  Biso 1.000000     N
    N   1.0     0.337955     0.469512     0.537681  Biso 1.000000     N
    N   1.0     0.408588     0.294387     0.733228  Biso 1.000000     N
    N   1.0     0.397363     0.186813     0.416617  Biso 1.000000     N
    N   1.0     0.161859     0.529995     0.037093  Biso 1.000000     N
    N   1.0     0.091939     0.704582     0.232866  Biso 1.000000     N
    N   1.0     0.100885     0.812839     0.916366  Biso 1.000000     N
    O   1.0     0.901587     0.146874     0.914695  Biso 1.000000     O
    O   1.0     0.819154     0.237467     0.930627  Biso 1.000000     O
    O   1.0     0.555447     0.225489     0.085806  Biso 1.000000     O
    O   1.0     0.461863     0.139355     0.071977  Biso 1.000000     O
    O   1.0     0.551237     0.936224     0.034752  Biso 1.000000     O
    O   1.0     0.347592     0.839088     0.599854  Biso 1.000000     O
    O   1.0     0.427894     0.825207     0.511148  Biso 1.000000     O
    O   1.0     0.694988     0.663671     0.522207  Biso 1.000000     O
    O   1.0     0.788117     0.677391     0.605358  Biso 1.000000     O
    O   1.0     0.701066     0.719244     0.799392  Biso 1.000000     O
    O   1.0     0.675253     0.578546     0.341454  Biso 1.000000     O
    O   1.0     0.666547     0.682209     0.312300  Biso 1.000000     O
    O   1.0     0.567989     0.408039     0.173359  Biso 1.000000     O
    O   1.0     0.579530     0.444109     0.075395  Biso 1.000000     O
    O   1.0     0.535011     0.635097    -0.001323  Biso 1.000000     O
    O   1.0     0.596844     0.855273     0.415824  Biso 1.000000     O
    O   1.0     0.679010     0.763980     0.429024  Biso 1.000000     O
    O   1.0     0.946199     0.773887     0.583844  Biso 1.000000     O
    O   1.0     0.038174     0.860920     0.571026  Biso 1.000000     O
    O   1.0     0.950806     0.063699     0.533619  Biso 1.000000     O
    O   1.0     0.152193     0.161152     0.098724  Biso 1.000000     O
    O   1.0     0.070128     0.174943     0.010590  Biso 1.000000     O
    O   1.0     0.806668     0.339009     0.022994  Biso 1.000000     O
    O   1.0     0.713162     0.324584     0.105846  Biso 1.000000     O
    O   1.0     0.802326     0.283083     0.298941  Biso 1.000000     O
    O   1.0     0.822784     0.421821     0.841568  Biso 1.000000     O
    O   1.0     0.831401     0.317998     0.813224  Biso 1.000000     O
    O   1.0     0.930268     0.591870     0.673804  Biso 1.000000     O
    O   1.0     0.921941     0.555592     0.575870  Biso 1.000000     O
    O   1.0     0.967136     0.364499     0.500494  Biso 1.000000     O
    O   1.0     0.098236     0.645157     0.586510  Biso 1.000000     O
    O   1.0     0.180676     0.736242     0.571207  Biso 1.000000     O
    O   1.0     0.444587     0.725633     0.415538  Biso 1.000000     O
    O   1.0     0.537705     0.639463     0.429152  Biso 1.000000     O
    O   1.0     0.444926     0.435924     0.464013  Biso 1.000000     O
    O   1.0     0.652419     0.339285     0.901103  Biso 1.000000     O
    O   1.0     0.571817     0.324871     0.989609  Biso 1.000000     O
    O   1.0     0.305123     0.161561     0.977604  Biso 1.000000     O
    O   1.0     0.212428     0.175548     0.894275  Biso 1.000000     O
    O   1.0     0.299380     0.218653     0.701369  Biso 1.000000     O
    O   1.0     0.321204     0.078786     0.158784  Biso 1.000000     O
    O   1.0     0.333221     0.182475     0.187141  Biso 1.000000     O
    O   1.0     0.431745     0.908064     0.326493  Biso 1.000000     O
    O   1.0     0.420119     0.944160     0.424311  Biso 1.000000     O
    O   1.0     0.460893     0.133952     0.501578  Biso 1.000000     O
    O   1.0     0.402880     0.354934     0.085008  Biso 1.000000     O
    O   1.0     0.321157     0.263608     0.069559  Biso 1.000000     O
    O   1.0     0.054754     0.274365     0.914451  Biso 1.000000     O
    O   1.0     0.962615     0.360896     0.927983  Biso 1.000000     O
    O   1.0     0.052595     0.563642     0.964718  Biso 1.000000     O
    O   1.0     0.847141     0.660627     0.400617  Biso 1.000000     O
    O   1.0     0.929614     0.672485     0.488922  Biso 1.000000     O
    O   1.0     0.193548     0.836484     0.477733  Biso 1.000000     O
    O   1.0     0.287269     0.823085     0.394878  Biso 1.000000     O
    O   1.0     0.198480     0.782033     0.200551  Biso 1.000000     O
    O   1.0     0.176988     0.921874     0.658685  Biso 1.000000     O
    O   1.0     0.165046     0.818277     0.687551  Biso 1.000000     O
    O   1.0     0.066120     0.091931     0.826648  Biso 1.000000     O
    O   1.0     0.077436     0.055777     0.924583  Biso 1.000000     O
    O   1.0     0.032753     0.864197     0.000000  Biso 1.000000     O
    Y   1.0     0.058584     0.165041     0.909193  Biso 1.000000     Y
    Y   1.0     0.809318     0.342003     0.917524  Biso 1.000000     Y
    Y   1.0     0.440345     0.835083     0.409686  Biso 1.000000     Y
    Y   1.0     0.690269     0.659301     0.416702  Biso 1.000000     Y
    Y   1.0     0.941313     0.664619     0.590595  Biso 1.000000     Y
    Y   1.0     0.190703     0.841006     0.583376  Biso 1.000000     Y
    Y   1.0     0.559582     0.334902     0.090916  Biso 1.000000     Y
    Y   1.0     0.309046     0.159010     0.082961  Biso 1.000000     Y
