#======================================================================

# CRYSTAL DATA

#----------------------------------------------------------------------

data_VESTA_phase_1


_pd_phase_name                         MOF
_cell_length_a                         22.76200
_cell_length_b                         13.67100
_cell_length_c                         13.68100
_cell_angle_alpha                      80.11700
_cell_angle_beta                       65.44200
_cell_angle_gamma                      65.50700
_symmetry_space_group_name_H-M         "P 1"
_symmetry_Int_Tables_number            1

loop_
_symmetry_equiv_pos_as_xyz
   "x, y, z"

loop_
   _atom_site_label
   _atom_site_occupancy
   _atom_site_fract_x
   _atom_site_fract_y
   _atom_site_fract_z
   _atom_site_adp_type
   _atom_site_B_iso_or_equiv
   _atom_site_type_symbol
    H   1.0     0.456144     0.453793     0.336974  Biso 1.000000     H
    H   1.0     0.956280     0.453509     0.336434  Biso 1.000000     H
    H   1.0     0.479756     0.363852     0.234751  Biso 1.000000     H
    H   1.0     0.979390     0.363051     0.235029  Biso 1.000000     H
    H   1.0     0.476080     0.496459     0.199863  Biso 1.000000     H
    H   1.0     0.976190     0.495303     0.199066  Biso 1.000000     H
    H   1.0     0.242489     0.569072     0.218081  Biso 1.000000     H
    H   1.0     0.741959     0.569946     0.218986  Biso 1.000000     H
    H   1.0     0.100737     0.046328     0.163970  Biso 1.000000     H
    H   1.0     0.602758     0.045578     0.162106  Biso 1.000000     H
    H   1.0     0.027902     0.138431     0.263571  Biso 1.000000     H
    H   1.0     0.530162     0.136638     0.262943  Biso 1.000000     H
    H   1.0     0.071885     0.000000     0.302030  Biso 1.000000     H
    H   1.0     0.574536     0.000000     0.299701  Biso 1.000000     H
    H   1.0     0.388117     0.928353     0.279705  Biso 1.000000     H
    H   1.0     0.887776     0.925549     0.281038  Biso 1.000000     H
    H   1.0     0.123894     0.664256     0.953209  Biso 1.000000     H
    H   1.0     0.625079     0.663255     0.950989  Biso 1.000000     H
    H   1.0     0.096748     0.763936     0.861521  Biso 1.000000     H
    H   1.0     0.597387     0.764350     0.860671  Biso 1.000000     H
    H   1.0     0.075201     0.802255    -0.006874  Biso 1.000000     H
    H   1.0     0.576656     0.800795    -0.007430  Biso 1.000000     H
    H   1.0     0.351791     0.780884     0.071025  Biso 1.000000     H
    H   1.0     0.850836     0.780293     0.073386  Biso 1.000000     H
    H   1.0     0.181316     0.836896     0.550197  Biso 1.000000     H
    H   1.0     0.682751     0.838461     0.547137  Biso 1.000000     H
    H   1.0     0.159121     0.735448     0.640193  Biso 1.000000     H
    H   1.0     0.660790     0.737140     0.637654  Biso 1.000000     H
    H   1.0     0.222685     0.699394     0.508396  Biso 1.000000     H
    H   1.0     0.723835     0.700881     0.505584  Biso 1.000000     H
    H   1.0     0.028204     0.717974     0.427656  Biso 1.000000     H
    H   1.0     0.527917     0.719011     0.429097  Biso 1.000000     H
    H   1.0     0.043601     0.545255     0.662364  Biso 1.000000     H
    H   1.0     0.543636     0.547760     0.663559  Biso 1.000000     H
    H   1.0     0.020012     0.635268     0.764508  Biso 1.000000     H
    H   1.0     0.520755     0.638025     0.764979  Biso 1.000000     H
    H   1.0     0.023878     0.502604     0.799476  Biso 1.000000     H
    H   1.0     0.523673     0.505886     0.800895  Biso 1.000000     H
    H   1.0     0.257380     0.431398     0.780752  Biso 1.000000     H
    H   1.0     0.758199     0.429214     0.780777  Biso 1.000000     H
    H   1.0     0.399066     0.953420     0.835747  Biso 1.000000     H
    H   1.0     0.897785     0.953458     0.836938  Biso 1.000000     H
    H   1.0     0.471838     0.862522     0.734961  Biso 1.000000     H
    H   1.0     0.970743     0.861248     0.737568  Biso 1.000000     H
    H   1.0     0.427223    -0.005545     0.698139  Biso 1.000000     H
    H   1.0     0.926787    -0.007316     0.698821  Biso 1.000000     H
    H   1.0     0.110870     0.073979     0.720046  Biso 1.000000     H
    H   1.0     0.612467     0.073458     0.718436  Biso 1.000000     H
    H   1.0     0.375876     0.335715     0.048340  Biso 1.000000     H
    H   1.0     0.875265     0.336327     0.046922  Biso 1.000000     H
    H   1.0     0.403920     0.233923     0.137904  Biso 1.000000     H
    H   1.0     0.902201     0.236983     0.138999  Biso 1.000000     H
    H   1.0     0.424565     0.198523     0.000000  Biso 1.000000     H
    H   1.0     0.923734     0.198144     0.000000  Biso 1.000000     H
    H   1.0     0.148403     0.219157     0.927160  Biso 1.000000     H
    H   1.0     0.649113     0.219156     0.928017  Biso 1.000000     H
    H   1.0     0.317604     0.162812     0.451426  Biso 1.000000     H
    H   1.0     0.817431     0.162574     0.451261  Biso 1.000000     H
    H   1.0     0.339629     0.264112     0.360953  Biso 1.000000     H
    H   1.0     0.839974     0.263352     0.360516  Biso 1.000000     H
    H   1.0     0.276511     0.300382     0.492981  Biso 1.000000     H
    H   1.0     0.776614     0.300288     0.492288  Biso 1.000000     H
    H   1.0     0.471996     0.282124     0.570619  Biso 1.000000     H
    H   1.0     0.971824     0.281081     0.571232  Biso 1.000000     H
    C   1.0     0.451022     0.447949     0.262012  Biso 1.000000     C
    C   1.0     0.950963     0.447332     0.261736  Biso 1.000000     C
    C   1.0     0.375982     0.484913     0.280351  Biso 1.000000     C
    C   1.0     0.875837     0.484753     0.280419  Biso 1.000000     C
    C   1.0     0.280061     0.541391     0.256071  Biso 1.000000     C
    C   1.0     0.779687     0.541934     0.256710  Biso 1.000000     C
    C   1.0     0.054637     0.053661     0.238434  Biso 1.000000     C
    C   1.0     0.556914     0.052197     0.236751  Biso 1.000000     C
    C   1.0     0.007748     0.015471     0.219962  Biso 1.000000     C
    C   1.0     0.509776     0.014638     0.218214  Biso 1.000000     C
    C   1.0     0.430525     0.956838     0.242001  Biso 1.000000     C
    C   1.0     0.929521     0.955450     0.243522  Biso 1.000000     C
    C   1.0     0.081349     0.738612     0.946178  Biso 1.000000     C
    C   1.0     0.582439     0.737978     0.945006  Biso 1.000000     C
    C   1.0     0.015529     0.719775     0.984355  Biso 1.000000     C
    C   1.0     0.516510     0.719449     0.983372  Biso 1.000000     C
    C   1.0     0.408404     0.743178     0.042170  Biso 1.000000     C
    C   1.0     0.907473     0.742934     0.043901  Biso 1.000000     C
    C   1.0     0.173224     0.761926     0.555885  Biso 1.000000     C
    C   1.0     0.674539     0.763523     0.553327  Biso 1.000000     C
    C   1.0     0.117475     0.780006     0.517122  Biso 1.000000     C
    C   1.0     0.618387     0.781541     0.515502  Biso 1.000000     C
    C   1.0     0.051188     0.755877     0.457222  Biso 1.000000     C
    C   1.0     0.551349     0.757063     0.457533  Biso 1.000000     C
    C   1.0     0.048811     0.551181     0.737221  Biso 1.000000     C
    C   1.0     0.549021     0.553743     0.738253  Biso 1.000000     C
    C   1.0     0.123865     0.514486     0.718683  Biso 1.000000     C
    C   1.0     0.624179     0.515895     0.719533  Biso 1.000000     C
    C   1.0     0.219791     0.458685     0.742827  Biso 1.000000     C
    C   1.0     0.720412     0.457790     0.743126  Biso 1.000000     C
    C   1.0     0.444891     0.946982     0.761114  Biso 1.000000     C
    C   1.0     0.943946     0.946063     0.762561  Biso 1.000000     C
    C   1.0     0.491797     0.985046     0.779682  Biso 1.000000     C
    C   1.0     0.990734     0.984420     0.781112  Biso 1.000000     C
    C   1.0     0.069021     0.044297     0.757566  Biso 1.000000     C
    C   1.0     0.570445     0.044138     0.756044  Biso 1.000000     C
    C   1.0     0.418680     0.260992     0.053792  Biso 1.000000     C
    C   1.0     0.917694     0.261933     0.054230  Biso 1.000000     C
    C   1.0     0.484469     0.279889     0.015683  Biso 1.000000     C
    C   1.0     0.983638     0.280435     0.015878  Biso 1.000000     C
    C   1.0     0.091779     0.256764     0.956449  Biso 1.000000     C
    C   1.0     0.592489     0.256634     0.956951  Biso 1.000000     C
    C   1.0     0.325822     0.237741     0.445285  Biso 1.000000     C
    C   1.0     0.825878     0.237321     0.444963  Biso 1.000000     C
    C   1.0     0.381915     0.219710     0.483248  Biso 1.000000     C
    C   1.0     0.881835     0.219068     0.483319  Biso 1.000000     C
    C   1.0     0.448728     0.244116     0.541780  Biso 1.000000     C
    C   1.0     0.948558     0.243177     0.542268  Biso 1.000000     C
    N   1.0     0.262899     0.527480     0.361811  Biso 1.000000     N
    N   1.0     0.762728     0.527949     0.362405  Biso 1.000000     N
    N   1.0     0.324861     0.490662     0.377512  Biso 1.000000     N
    N   1.0     0.824833     0.490667     0.377743  Biso 1.000000     N
    N   1.0     0.349529     0.516387     0.201999  Biso 1.000000     N
    N   1.0     0.849168     0.516541     0.202315  Biso 1.000000     N
    N   1.0     0.459162     0.971319     0.136331  Biso 1.000000     N
    N   1.0     0.957176     0.972002     0.138102  Biso 1.000000     N
    N   1.0     0.007463     0.011198     0.122826  Biso 1.000000     N
    N   1.0     0.510115     0.009026     0.120938  Biso 1.000000     N
    N   1.0     0.460220     0.982272     0.296302  Biso 1.000000     N
    N   1.0     0.959233     0.980851     0.297807  Biso 1.000000     N
    N   1.0     0.444205     0.637429     0.027882  Biso 1.000000     N
    N   1.0     0.943488     0.637419     0.028019  Biso 1.000000     N
    N   1.0     0.013264     0.622395     0.989130  Biso 1.000000     N
    N   1.0     0.513976     0.622099     0.989546  Biso 1.000000     N
    N   1.0     0.450853     0.797552     0.016011  Biso 1.000000     N
    N   1.0     0.949720     0.797525     0.018362  Biso 1.000000     N
    N   1.0     0.026602     0.861541     0.472459  Biso 1.000000     N
    N   1.0     0.527170     0.862848     0.471656  Biso 1.000000     N
    N   1.0     0.069168     0.877147     0.511497  Biso 1.000000     N
    N   1.0     0.570228     0.878694     0.509454  Biso 1.000000     N
    N   1.0     0.107640     0.701785     0.483444  Biso 1.000000     N
    N   1.0     0.607991     0.703093     0.483302  Biso 1.000000     N
    N   1.0     0.236899     0.472314     0.637081  Biso 1.000000     N
    N   1.0     0.737320     0.472306     0.637480  Biso 1.000000     N
    N   1.0     0.174934     0.508698     0.621451  Biso 1.000000     N
    N   1.0     0.675160     0.510193     0.622218  Biso 1.000000     N
    N   1.0     0.150353     0.483466     0.796999  Biso 1.000000     N
    N   1.0     0.650913     0.483406     0.797556  Biso 1.000000     N
    N   1.0     0.041062     0.028358     0.863060  Biso 1.000000     N
    N   1.0     0.542327     0.028548     0.861597  Biso 1.000000     N
    N   1.0     0.491766     0.989999     0.876887  Biso 1.000000     N
    N   1.0     0.990731     0.989262     0.878332  Biso 1.000000     N
    N   1.0     0.039477     0.018578     0.703217  Biso 1.000000     N
    N   1.0     0.540770     0.018650     0.701742  Biso 1.000000     N
    N   1.0     0.055954     0.362391     0.971740  Biso 1.000000     N
    N   1.0     0.556504     0.362286     0.971748  Biso 1.000000     N
    N   1.0     0.486779     0.377339     0.010060  Biso 1.000000     N
    N   1.0     0.986130     0.377718     0.010534  Biso 1.000000     N
    N   1.0     0.049352     0.202420     0.982302  Biso 1.000000     N
    N   1.0     0.550217     0.202029     0.982737  Biso 1.000000     N
    N   1.0     0.473187     0.138402     0.526973  Biso 1.000000     N
    N   1.0     0.972778     0.137445     0.527789  Biso 1.000000     N
    N   1.0     0.430278     0.122613     0.488802  Biso 1.000000     N
    N   1.0     0.929935     0.121836     0.489352  Biso 1.000000     N
    N   1.0     0.392045     0.298068     0.516114  Biso 1.000000     N
    N   1.0     0.892081     0.297336     0.516126  Biso 1.000000     N
   Zn   1.0     0.163897     0.532526     0.472844  Biso 1.000000    Zn
   Zn   1.0     0.663776     0.533636     0.474054  Biso 1.000000    Zn
   Zn   1.0     0.418188     0.966682     0.025264  Biso 1.000000    Zn
   Zn   1.0     0.916701     0.966823     0.026689  Biso 1.000000    Zn
   Zn   1.0     0.401281     0.525513     0.032907  Biso 1.000000    Zn
   Zn   1.0     0.900729     0.525585     0.033182  Biso 1.000000    Zn
   Zn   1.0     0.431120     0.973792     0.465665  Biso 1.000000    Zn
   Zn   1.0     0.930474     0.972805     0.467081  Biso 1.000000    Zn
   Zn   1.0     0.335881     0.467287     0.525974  Biso 1.000000    Zn
   Zn   1.0     0.836243     0.466777     0.525949  Biso 1.000000    Zn
   Zn   1.0     0.081551     0.033288     0.974530  Biso 1.000000    Zn
   Zn   1.0     0.583586     0.032831     0.972441  Biso 1.000000    Zn
   Zn   1.0     0.098816     0.474442     0.966188  Biso 1.000000    Zn
   Zn   1.0     0.599353     0.474067     0.966784  Biso 1.000000    Zn
   Zn   1.0     0.068688     0.025962     0.533787  Biso 1.000000    Zn
   Zn   1.0     0.569390     0.027699     0.532546  Biso 1.000000    Zn
