#======================================================================

# CRYSTAL DATA

#----------------------------------------------------------------------

data_VESTA_phase_1


_pd_phase_name                         MOF
_cell_length_a                         14.72400
_cell_length_b                         22.74500
_cell_length_c                         22.73800
_cell_angle_alpha                      66.22000
_cell_angle_beta                       71.17000
_cell_angle_gamma                      71.18300
_symmetry_space_group_name_H-M         "P 1"
_symmetry_Int_Tables_number            1

loop_
_symmetry_equiv_pos_as_xyz
   "x, y, z"

loop_
   _atom_site_label
   _atom_site_occupancy
   _atom_site_fract_x
   _atom_site_fract_y
   _atom_site_fract_z
   _atom_site_adp_type
   _atom_site_B_iso_or_equiv
   _atom_site_type_symbol
    H   1.0     0.368896     0.433979     0.222229  Biso 1.000000     H
    H   1.0     0.368905     0.433981     0.722243  Biso 1.000000     H
    H   1.0     0.368907     0.933983     0.222226  Biso 1.000000     H
    H   1.0     0.368915     0.933981     0.722243  Biso 1.000000     H
    H   1.0     0.868889     0.433982     0.222231  Biso 1.000000     H
    H   1.0     0.868898     0.433981     0.722240  Biso 1.000000     H
    H   1.0     0.868899     0.933981     0.222225  Biso 1.000000     H
    H   1.0     0.868902     0.933984     0.722238  Biso 1.000000     H
    H   1.0     0.120233     0.316162     0.324142  Biso 1.000000     H
    H   1.0     0.120234     0.316173     0.824151  Biso 1.000000     H
    H   1.0     0.120230     0.816177     0.324137  Biso 1.000000     H
    H   1.0     0.120239     0.816177     0.824153  Biso 1.000000     H
    H   1.0     0.620216     0.316174     0.324137  Biso 1.000000     H
    H   1.0     0.620231     0.316167     0.824157  Biso 1.000000     H
    H   1.0     0.620229     0.816170     0.324149  Biso 1.000000     H
    H   1.0     0.620232     0.816176     0.824166  Biso 1.000000     H
    H   1.0     0.198065     0.255286     0.376065  Biso 1.000000     H
    H   1.0     0.198066     0.255284     0.876068  Biso 1.000000     H
    H   1.0     0.198065     0.755286     0.376052  Biso 1.000000     H
    H   1.0     0.198075     0.755277     0.876062  Biso 1.000000     H
    H   1.0     0.698053     0.255277     0.376046  Biso 1.000000     H
    H   1.0     0.698066     0.255285     0.876075  Biso 1.000000     H
    H   1.0     0.698069     0.755282     0.376061  Biso 1.000000     H
    H   1.0     0.698081     0.755270     0.876063  Biso 1.000000     H
    H   1.0     0.187998     0.241466     0.307428  Biso 1.000000     H
    H   1.0     0.187988     0.241482     0.807425  Biso 1.000000     H
    H   1.0     0.187983     0.741486     0.307408  Biso 1.000000     H
    H   1.0     0.187985     0.741492     0.807413  Biso 1.000000     H
    H   1.0     0.687966     0.241488     0.307398  Biso 1.000000     H
    H   1.0     0.687990     0.241474     0.807437  Biso 1.000000     H
    H   1.0     0.687983     0.741479     0.307421  Biso 1.000000     H
    H   1.0     0.687970     0.741494     0.807414  Biso 1.000000     H
    H   1.0     0.025400     0.376180     0.135178  Biso 1.000000     H
    H   1.0     0.025405     0.376178     0.635187  Biso 1.000000     H
    H   1.0     0.025401     0.876176     0.135170  Biso 1.000000     H
    H   1.0     0.025411     0.876178     0.635189  Biso 1.000000     H
    H   1.0     0.525384     0.376177     0.135170  Biso 1.000000     H
    H   1.0     0.525401     0.376178     0.635194  Biso 1.000000     H
    H   1.0     0.525398     0.876176     0.135175  Biso 1.000000     H
    H   1.0     0.525412     0.876173     0.635198  Biso 1.000000     H
    H   1.0     0.056973     0.288732     0.171340  Biso 1.000000     H
    H   1.0     0.056981     0.288730     0.671352  Biso 1.000000     H
    H   1.0     0.056975     0.788728     0.171335  Biso 1.000000     H
    H   1.0     0.056988     0.788730     0.671356  Biso 1.000000     H
    H   1.0     0.556962     0.288730     0.171335  Biso 1.000000     H
    H   1.0     0.556974     0.288731     0.671356  Biso 1.000000     H
    H   1.0     0.556969     0.788729     0.171341  Biso 1.000000     H
    H   1.0     0.556989     0.788727     0.671367  Biso 1.000000     H
    H   1.0     0.068285     0.340606     0.209004  Biso 1.000000     H
    H   1.0     0.068295     0.340607     0.709011  Biso 1.000000     H
    H   1.0     0.068295     0.840605     0.208992  Biso 1.000000     H
    H   1.0     0.068295     0.840610     0.709015  Biso 1.000000     H
    H   1.0     0.568280     0.340607     0.208992  Biso 1.000000     H
    H   1.0     0.568286     0.340604     0.709020  Biso 1.000000     H
    H   1.0     0.568284     0.840605     0.209000  Biso 1.000000     H
    H   1.0     0.568291     0.840609     0.709025  Biso 1.000000     H
    H   1.0     0.025177     0.065643     0.277857  Biso 1.000000     H
    H   1.0     0.025187     0.065637     0.777877  Biso 1.000000     H
    H   1.0     0.025174     0.565636     0.277870  Biso 1.000000     H
    H   1.0     0.025182     0.565640     0.777881  Biso 1.000000     H
    H   1.0     0.525166     0.065635     0.277867  Biso 1.000000     H
    H   1.0     0.525182     0.065641     0.777871  Biso 1.000000     H
    H   1.0     0.525162     0.565639     0.277871  Biso 1.000000     H
    H   1.0     0.525175     0.565639     0.777881  Biso 1.000000     H
    H   1.0     0.260672     0.183143     0.176019  Biso 1.000000     H
    H   1.0     0.260658     0.183146     0.676047  Biso 1.000000     H
    H   1.0     0.260663     0.683146     0.176025  Biso 1.000000     H
    H   1.0     0.260663     0.683155     0.676046  Biso 1.000000     H
    H   1.0     0.760651     0.183143     0.176023  Biso 1.000000     H
    H   1.0     0.760664     0.183147     0.676038  Biso 1.000000     H
    H   1.0     0.760655     0.683145     0.176030  Biso 1.000000     H
    H   1.0     0.760654     0.683151     0.676046  Biso 1.000000     H
    H   1.0     0.329325     0.244158     0.124057  Biso 1.000000     H
    H   1.0     0.329328     0.244146     0.624067  Biso 1.000000     H
    H   1.0     0.329335     0.744146     0.124052  Biso 1.000000     H
    H   1.0     0.329361     0.744135     0.624058  Biso 1.000000     H
    H   1.0     0.829308     0.244151     0.124052  Biso 1.000000     H
    H   1.0     0.829329     0.244153     0.624067  Biso 1.000000     H
    H   1.0     0.829323     0.744147     0.124057  Biso 1.000000     H
    H   1.0     0.829339     0.744138     0.624062  Biso 1.000000     H
    H   1.0     0.237076     0.257862     0.192747  Biso 1.000000     H
    H   1.0     0.237093     0.257875     0.692753  Biso 1.000000     H
    H   1.0     0.237090     0.757873     0.192733  Biso 1.000000     H
    H   1.0     0.237126     0.757891     0.692732  Biso 1.000000     H
    H   1.0     0.737066     0.257868     0.192739  Biso 1.000000     H
    H   1.0     0.737086     0.257871     0.692755  Biso 1.000000     H
    H   1.0     0.737081     0.757870     0.192741  Biso 1.000000     H
    H   1.0     0.737104     0.757883     0.692740  Biso 1.000000     H
    H   1.0     0.036671     0.123325     0.365156  Biso 1.000000     H
    H   1.0     0.036670     0.123316     0.865182  Biso 1.000000     H
    H   1.0     0.036664     0.623318     0.365170  Biso 1.000000     H
    H   1.0     0.036669     0.623318     0.865184  Biso 1.000000     H
    H   1.0     0.536655     0.123316     0.365167  Biso 1.000000     H
    H   1.0     0.536670     0.123322     0.865174  Biso 1.000000     H
    H   1.0     0.536653     0.623322     0.365167  Biso 1.000000     H
    H   1.0     0.536654     0.623315     0.865190  Biso 1.000000     H
    H   1.0     0.516494     0.210810     0.329349  Biso 1.000000     H
    H   1.0     0.516502     0.210815     0.829357  Biso 1.000000     H
    H   1.0     0.516491     0.710816     0.329348  Biso 1.000000     H
    H   1.0     0.516490     0.710810     0.829375  Biso 1.000000     H
    H   1.0     0.000000     0.210820     0.329335  Biso 1.000000     H
    H   1.0     0.000000     0.210811     0.829367  Biso 1.000000     H
    H   1.0     0.000000     0.710812     0.329349  Biso 1.000000     H
    H   1.0     0.000000     0.710814     0.829367  Biso 1.000000     H
    H   1.0     0.117592     0.159368     0.291525  Biso 1.000000     H
    H   1.0     0.117598     0.159362     0.791557  Biso 1.000000     H
    H   1.0     0.117596     0.659356     0.291543  Biso 1.000000     H
    H   1.0     0.117595     0.659364     0.791558  Biso 1.000000     H
    H   1.0     0.617584     0.159358     0.291541  Biso 1.000000     H
    H   1.0     0.617595     0.159367     0.791546  Biso 1.000000     H
    H   1.0     0.617582     0.659364     0.291540  Biso 1.000000     H
    H   1.0     0.617586     0.659360     0.791567  Biso 1.000000     H
    H   1.0     0.118682     0.472398     0.183944  Biso 1.000000     H
    H   1.0     0.118690     0.472408     0.683948  Biso 1.000000     H
    H   1.0     0.118675     0.972396     0.183940  Biso 1.000000     H
    H   1.0     0.118692     0.972413     0.683939  Biso 1.000000     H
    H   1.0     0.618672     0.472397     0.183946  Biso 1.000000     H
    H   1.0     0.618683     0.472404     0.683947  Biso 1.000000     H
    H   1.0     0.618667     0.972397     0.183940  Biso 1.000000     H
    H   1.0     0.618679     0.972413     0.683940  Biso 1.000000     H
    H   1.0     0.370270     0.074112     0.066033  Biso 1.000000     H
    H   1.0     0.370278     0.074128     0.566041  Biso 1.000000     H
    H   1.0     0.370264     0.574115     0.066046  Biso 1.000000     H
    H   1.0     0.370274     0.574129     0.566049  Biso 1.000000     H
    H   1.0     0.870265     0.074115     0.066028  Biso 1.000000     H
    H   1.0     0.870269     0.074121     0.566043  Biso 1.000000     H
    H   1.0     0.870259     0.574120     0.066042  Biso 1.000000     H
    H   1.0     0.870255     0.574110     0.566055  Biso 1.000000     H
    H   1.0     0.448046     0.126022     0.505005  Biso 1.000000     H
    H   1.0     0.448036     0.126022     0.000000  Biso 1.000000     H
    H   1.0     0.448055     0.626013     0.505005  Biso 1.000000     H
    H   1.0     0.448042     0.626009     0.000000  Biso 1.000000     H
    H   1.0     0.948035     0.126016     0.505005  Biso 1.000000     H
    H   1.0     0.948031     0.126029     0.000000  Biso 1.000000     H
    H   1.0     0.948024     0.626005     0.505017  Biso 1.000000     H
    H   1.0     0.948040     0.626013     0.000000  Biso 1.000000     H
    H   1.0     0.438022     0.057294    -0.008623  Biso 1.000000     H
    H   1.0     0.438008     0.057278     0.491397  Biso 1.000000     H
    H   1.0     0.438000     0.557273    -0.008603  Biso 1.000000     H
    H   1.0     0.437999     0.557268     0.491407  Biso 1.000000     H
    H   1.0     0.938022     0.057303    -0.008630  Biso 1.000000     H
    H   1.0     0.937999     0.057270     0.491400  Biso 1.000000     H
    H   1.0     0.937996     0.557278    -0.008607  Biso 1.000000     H
    H   1.0     0.937990     0.557259     0.491409  Biso 1.000000     H
    H   1.0     0.274953     0.385203     0.126329  Biso 1.000000     H
    H   1.0     0.274961     0.385207     0.626336  Biso 1.000000     H
    H   1.0     0.274947     0.885208     0.126321  Biso 1.000000     H
    H   1.0     0.274967     0.885218     0.626326  Biso 1.000000     H
    H   1.0     0.774947     0.385204     0.126331  Biso 1.000000     H
    H   1.0     0.774948     0.385200     0.626338  Biso 1.000000     H
    H   1.0     0.774942     0.885210     0.126325  Biso 1.000000     H
    H   1.0     0.774954     0.885217     0.626324  Biso 1.000000     H
    H   1.0     0.306947     0.421294     0.038852  Biso 1.000000     H
    H   1.0     0.306951     0.421298     0.538859  Biso 1.000000     H
    H   1.0     0.306944     0.921297     0.038847  Biso 1.000000     H
    H   1.0     0.306959     0.921307     0.538850  Biso 1.000000     H
    H   1.0     0.806940     0.421295     0.038854  Biso 1.000000     H
    H   1.0     0.806942     0.421288     0.538860  Biso 1.000000     H
    H   1.0     0.806935     0.921296     0.038849  Biso 1.000000     H
    H   1.0     0.806949     0.921311     0.538848  Biso 1.000000     H
    H   1.0     0.318132     0.458902     0.090838  Biso 1.000000     H
    H   1.0     0.318134     0.458908     0.590843  Biso 1.000000     H
    H   1.0     0.318135     0.958902     0.090833  Biso 1.000000     H
    H   1.0     0.318140     0.958919     0.590835  Biso 1.000000     H
    H   1.0     0.818121     0.458905     0.090839  Biso 1.000000     H
    H   1.0     0.818129     0.458898     0.590844  Biso 1.000000     H
    H   1.0     0.818125     0.958907     0.090831  Biso 1.000000     H
    H   1.0     0.818129     0.958916     0.590838  Biso 1.000000     H
    H   1.0     0.275317     0.027872     0.315500  Biso 1.000000     H
    H   1.0     0.275318     0.027876     0.815506  Biso 1.000000     H
    H   1.0     0.275303     0.527862     0.315508  Biso 1.000000     H
    H   1.0     0.275311     0.527872     0.815511  Biso 1.000000     H
    H   1.0     0.775304     0.027877     0.315496  Biso 1.000000     H
    H   1.0     0.775312     0.027870     0.815510  Biso 1.000000     H
    H   1.0     0.775296     0.527865     0.315505  Biso 1.000000     H
    H   1.0     0.775306     0.527868     0.815515  Biso 1.000000     H
    H   1.0     0.010742     0.425931     0.433166  Biso 1.000000     H
    H   1.0     0.010751     0.425940     0.933169  Biso 1.000000     H
    H   1.0     0.010748     0.925945     0.433154  Biso 1.000000     H
    H   1.0     0.010770     0.925937     0.933156  Biso 1.000000     H
    H   1.0     0.510738     0.425932     0.433165  Biso 1.000000     H
    H   1.0     0.510745     0.425937     0.933167  Biso 1.000000     H
    H   1.0     0.510757     0.925933     0.433157  Biso 1.000000     H
    H   1.0     0.510750     0.925942     0.933157  Biso 1.000000     H
    H   1.0     0.079673     0.373988    -0.006005  Biso 1.000000     H
    H   1.0     0.079668     0.373977     0.494012  Biso 1.000000     H
    H   1.0     0.079660     0.874002    -0.005994  Biso 1.000000     H
    H   1.0     0.079670     0.873991     0.494002  Biso 1.000000     H
    H   1.0     0.579661     0.373988    -0.006002  Biso 1.000000     H
    H   1.0     0.579659     0.373982     0.494013  Biso 1.000000     H
    H   1.0     0.579645     0.874001    -0.005999  Biso 1.000000     H
    H   1.0     0.579672     0.873992     0.494013  Biso 1.000000     H
    H   1.0     0.487374     0.442522     0.507954  Biso 1.000000     H
    H   1.0     0.487380     0.442520     0.000000  Biso 1.000000     H
    H   1.0     0.487376     0.942534     0.507943  Biso 1.000000     H
    H   1.0     0.487364     0.942541     0.000000  Biso 1.000000     H
    H   1.0     0.987365     0.442516     0.507958  Biso 1.000000     H
    H   1.0     0.987379     0.442519     0.000000  Biso 1.000000     H
    H   1.0     0.987368     0.942532     0.507946  Biso 1.000000     H
    H   1.0     0.987356     0.942545     0.000000  Biso 1.000000     H
    H   1.0     0.286877     0.115102     0.373319  Biso 1.000000     H
    H   1.0     0.286876     0.115106     0.873330  Biso 1.000000     H
    H   1.0     0.286855     0.615095     0.373332  Biso 1.000000     H
    H   1.0     0.286867     0.615101     0.873337  Biso 1.000000     H
    H   1.0     0.786852     0.115115     0.373314  Biso 1.000000     H
    H   1.0     0.786877     0.115098     0.873332  Biso 1.000000     H
    H   1.0     0.786854     0.615096     0.373327  Biso 1.000000     H
    H   1.0     0.786860     0.615097     0.873342  Biso 1.000000     H
    H   1.0     0.266497     0.079226     0.460850  Biso 1.000000     H
    H   1.0     0.266509     0.079222     0.960860  Biso 1.000000     H
    H   1.0     0.266485     0.579216     0.460861  Biso 1.000000     H
    H   1.0     0.266496     0.579221     0.960867  Biso 1.000000     H
    H   1.0     0.766483     0.079237     0.460845  Biso 1.000000     H
    H   1.0     0.766500     0.079218     0.960863  Biso 1.000000     H
    H   1.0     0.766483     0.579218     0.460857  Biso 1.000000     H
    H   1.0     0.766488     0.579216     0.960872  Biso 1.000000     H
    H   1.0     0.367673     0.041454     0.409407  Biso 1.000000     H
    H   1.0     0.367680     0.041458     0.909408  Biso 1.000000     H
    H   1.0     0.367659     0.541450     0.409412  Biso 1.000000     H
    H   1.0     0.367670     0.541455     0.909417  Biso 1.000000     H
    H   1.0     0.867659     0.041471     0.409396  Biso 1.000000     H
    H   1.0     0.867672     0.041448     0.909416  Biso 1.000000     H
    H   1.0     0.867656     0.541451     0.409408  Biso 1.000000     H
    H   1.0     0.867662     0.541451     0.909422  Biso 1.000000     H
    C   1.0     0.368846     0.283496     0.251088  Biso 1.000000     C
    C   1.0     0.368850     0.283499     0.751102  Biso 1.000000     C
    C   1.0     0.368846     0.783501     0.251086  Biso 1.000000     C
    C   1.0     0.368859     0.783500     0.751104  Biso 1.000000     C
    C   1.0     0.868834     0.283503     0.251079  Biso 1.000000     C
    C   1.0     0.868844     0.283499     0.751100  Biso 1.000000     C
    C   1.0     0.868842     0.783499     0.251086  Biso 1.000000     C
    C   1.0     0.868846     0.783503     0.751096  Biso 1.000000     C
    C   1.0     0.420867     0.333869     0.221724  Biso 1.000000     C
    C   1.0     0.420875     0.333870     0.721740  Biso 1.000000     C
    C   1.0     0.420871     0.833872     0.221722  Biso 1.000000     C
    C   1.0     0.420882     0.833871     0.721740  Biso 1.000000     C
    C   1.0     0.920858     0.333874     0.221723  Biso 1.000000     C
    C   1.0     0.920869     0.333869     0.721740  Biso 1.000000     C
    C   1.0     0.920866     0.833870     0.221723  Biso 1.000000     C
    C   1.0     0.920872     0.833873     0.721739  Biso 1.000000     C
    C   1.0     0.274147     0.311708     0.282711  Biso 1.000000     C
    C   1.0     0.274148     0.311714     0.782719  Biso 1.000000     C
    C   1.0     0.274144     0.811717     0.282702  Biso 1.000000     C
    C   1.0     0.274153     0.811716     0.782716  Biso 1.000000     C
    C   1.0     0.774132     0.311713     0.282703  Biso 1.000000     C
    C   1.0     0.774146     0.311711     0.782725  Biso 1.000000     C
    C   1.0     0.774143     0.811711     0.282711  Biso 1.000000     C
    C   1.0     0.774146     0.811713     0.782720  Biso 1.000000     C
    C   1.0     0.190447     0.279544     0.324540  Biso 1.000000     C
    C   1.0     0.190446     0.279552     0.824544  Biso 1.000000     C
    C   1.0     0.190441     0.779556     0.324529  Biso 1.000000     C
    C   1.0     0.190449     0.779555     0.824540  Biso 1.000000     C
    C   1.0     0.690427     0.279553     0.324524  Biso 1.000000     C
    C   1.0     0.690444     0.279549     0.824552  Biso 1.000000     C
    C   1.0     0.690442     0.779550     0.324539  Biso 1.000000     C
    C   1.0     0.690441     0.779553     0.824544  Biso 1.000000     C
    C   1.0     0.023258     0.334937     0.182099  Biso 1.000000     C
    C   1.0     0.023265     0.334936     0.682109  Biso 1.000000     C
    C   1.0     0.023263     0.834934     0.182092  Biso 1.000000     C
    C   1.0     0.023270     0.834937     0.682112  Biso 1.000000     C
    C   1.0     0.523247     0.334936     0.182093  Biso 1.000000     C
    C   1.0     0.523258     0.334936     0.682115  Biso 1.000000     C
    C   1.0     0.523255     0.834935     0.182097  Biso 1.000000     C
    C   1.0     0.523269     0.834934     0.682121  Biso 1.000000     C
    C   1.0     0.403516     0.216030     0.249134  Biso 1.000000     C
    C   1.0     0.403524     0.216035     0.749144  Biso 1.000000     C
    C   1.0     0.403516     0.716036     0.249132  Biso 1.000000     C
    C   1.0     0.403525     0.716034     0.749152  Biso 1.000000     C
    C   1.0     0.903496     0.216035     0.249134  Biso 1.000000     C
    C   1.0     0.903517     0.216032     0.749149  Biso 1.000000     C
    C   1.0     0.903508     0.716032     0.249139  Biso 1.000000     C
    C   1.0     0.903511     0.716033     0.749153  Biso 1.000000     C
    C   1.0     0.476479     0.165707     0.278522  Biso 1.000000     C
    C   1.0     0.476485     0.165711     0.778533  Biso 1.000000     C
    C   1.0     0.476475     0.665712     0.278524  Biso 1.000000     C
    C   1.0     0.476488     0.665710     0.778539  Biso 1.000000     C
    C   1.0     0.976477     0.165716     0.278507  Biso 1.000000     C
    C   1.0     0.976477     0.165707     0.778538  Biso 1.000000     C
    C   1.0     0.976474     0.665708     0.278524  Biso 1.000000     C
    C   1.0     0.976483     0.665712     0.778533  Biso 1.000000     C
    C   1.0     0.368753     0.187798     0.217374  Biso 1.000000     C
    C   1.0     0.368757     0.187802     0.717386  Biso 1.000000     C
    C   1.0     0.368754     0.687800     0.217373  Biso 1.000000     C
    C   1.0     0.368776     0.687803     0.717382  Biso 1.000000     C
    C   1.0     0.868748     0.187804     0.217363  Biso 1.000000     C
    C   1.0     0.868755     0.187802     0.717385  Biso 1.000000     C
    C   1.0     0.868752     0.687799     0.217374  Biso 1.000000     C
    C   1.0     0.868766     0.687804     0.717380  Biso 1.000000     C
    C   1.0     0.294640     0.219850     0.175596  Biso 1.000000     C
    C   1.0     0.294643     0.219853     0.675610  Biso 1.000000     C
    C   1.0     0.294644     0.719851     0.175593  Biso 1.000000     C
    C   1.0     0.294664     0.719856     0.675603  Biso 1.000000     C
    C   1.0     0.794624     0.219850     0.175594  Biso 1.000000     C
    C   1.0     0.794642     0.219853     0.675608  Biso 1.000000     C
    C   1.0     0.794636     0.719850     0.175599  Biso 1.000000     C
    C   1.0     0.794648     0.719853     0.675606  Biso 1.000000     C
    C   1.0     0.040054     0.164712     0.318350  Biso 1.000000     C
    C   1.0     0.040058     0.164705     0.818377  Biso 1.000000     C
    C   1.0     0.040056     0.664704     0.318364  Biso 1.000000     C
    C   1.0     0.040056     0.664707     0.818379  Biso 1.000000     C
    C   1.0     0.540045     0.164703     0.318361  Biso 1.000000     C
    C   1.0     0.540056     0.164710     0.818368  Biso 1.000000     C
    C   1.0     0.540043     0.664709     0.318361  Biso 1.000000     C
    C   1.0     0.540045     0.664704     0.818386  Biso 1.000000     C
    C   1.0     0.118900     0.001154     0.033394  Biso 1.000000     C
    C   1.0     0.118902     0.001142     0.533405  Biso 1.000000     C
    C   1.0     0.118886     0.501133     0.033409  Biso 1.000000     C
    C   1.0     0.118883     0.501125     0.533420  Biso 1.000000     C
    C   1.0     0.618889     0.001146     0.033398  Biso 1.000000     C
    C   1.0     0.618893     0.001145     0.533404  Biso 1.000000     C
    C   1.0     0.618876     0.501130     0.033412  Biso 1.000000     C
    C   1.0     0.618880     0.501125     0.533418  Biso 1.000000     C
    C   1.0     0.170787     0.471759     0.083850  Biso 1.000000     C
    C   1.0     0.170790     0.471761     0.583857  Biso 1.000000     C
    C   1.0     0.170775     0.971750     0.083847  Biso 1.000000     C
    C   1.0     0.170790     0.971762     0.583849  Biso 1.000000     C
    C   1.0     0.670777     0.471758     0.083852  Biso 1.000000     C
    C   1.0     0.670787     0.471762     0.583855  Biso 1.000000     C
    C   1.0     0.670769     0.971753     0.083848  Biso 1.000000     C
    C   1.0     0.670782     0.971768     0.583848  Biso 1.000000     C
    C   1.0     0.024164     0.032760     0.061579  Biso 1.000000     C
    C   1.0     0.024174     0.032762     0.561584  Biso 1.000000     C
    C   1.0     0.024163     0.532764     0.061583  Biso 1.000000     C
    C   1.0     0.024162     0.532759     0.561592  Biso 1.000000     C
    C   1.0     0.524157     0.032760     0.061580  Biso 1.000000     C
    C   1.0     0.524167     0.032768     0.561582  Biso 1.000000     C
    C   1.0     0.524153     0.532761     0.061586  Biso 1.000000     C
    C   1.0     0.524163     0.532767     0.561586  Biso 1.000000     C
    C   1.0     0.440484     0.074506     0.029386  Biso 1.000000     C
    C   1.0     0.440489     0.074505     0.529390  Biso 1.000000     C
    C   1.0     0.440474     0.574497     0.029395  Biso 1.000000     C
    C   1.0     0.440482     0.574499     0.529396  Biso 1.000000     C
    C   1.0     0.940480     0.074513     0.029382  Biso 1.000000     C
    C   1.0     0.940480     0.074499     0.529392  Biso 1.000000     C
    C   1.0     0.940469     0.574501     0.029391  Biso 1.000000     C
    C   1.0     0.940464     0.574489     0.529402  Biso 1.000000     C
    C   1.0     0.273098     0.432088     0.085047  Biso 1.000000     C
    C   1.0     0.273103     0.432092     0.585054  Biso 1.000000     C
    C   1.0     0.273095     0.932094     0.085041  Biso 1.000000     C
    C   1.0     0.273109     0.932103     0.585044  Biso 1.000000     C
    C   1.0     0.773090     0.432089     0.085049  Biso 1.000000     C
    C   1.0     0.773095     0.432084     0.585055  Biso 1.000000     C
    C   1.0     0.773088     0.932094     0.085042  Biso 1.000000     C
    C   1.0     0.773098     0.932104     0.585044  Biso 1.000000     C
    C   1.0     0.153598     0.499089     0.465961  Biso 1.000000     C
    C   1.0     0.153609     0.499094     0.965965  Biso 1.000000     C
    C   1.0     0.153604     0.999099     0.465948  Biso 1.000000     C
    C   1.0     0.153612     0.999096     0.965957  Biso 1.000000     C
    C   1.0     0.653593     0.499094     0.465957  Biso 1.000000     C
    C   1.0     0.653599     0.499093     0.965967  Biso 1.000000     C
    C   1.0     0.653596     0.999105     0.465946  Biso 1.000000     C
    C   1.0     0.653597     0.999098     0.965958  Biso 1.000000     C
    C   1.0     0.226594     0.028496     0.415625  Biso 1.000000     C
    C   1.0     0.226593     0.028501     0.915632  Biso 1.000000     C
    C   1.0     0.226579     0.528487     0.415633  Biso 1.000000     C
    C   1.0     0.226589     0.528494     0.915638  Biso 1.000000     C
    C   1.0     0.726585     0.028502     0.415621  Biso 1.000000     C
    C   1.0     0.726592     0.028492     0.915636  Biso 1.000000     C
    C   1.0     0.726580     0.528487     0.415630  Biso 1.000000     C
    C   1.0     0.726582     0.528490     0.915641  Biso 1.000000     C
    C   1.0     0.118876     0.467344     0.437694  Biso 1.000000     C
    C   1.0     0.118885     0.467352     0.937696  Biso 1.000000     C
    C   1.0     0.118883     0.967354     0.437680  Biso 1.000000     C
    C   1.0     0.118879     0.967363     0.937684  Biso 1.000000     C
    C   1.0     0.618875     0.467345     0.437691  Biso 1.000000     C
    C   1.0     0.618876     0.467350     0.937698  Biso 1.000000     C
    C   1.0     0.618878     0.967356     0.437682  Biso 1.000000     C
    C   1.0     0.618874     0.967356     0.937688  Biso 1.000000     C
    C   1.0     0.044851     0.425494     0.469816  Biso 1.000000     C
    C   1.0     0.044862     0.425500     0.969819  Biso 1.000000     C
    C   1.0     0.044853     0.925507     0.469805  Biso 1.000000     C
    C   1.0     0.044857     0.925511     0.969811  Biso 1.000000     C
    C   1.0     0.544845     0.425498     0.469814  Biso 1.000000     C
    C   1.0     0.544851     0.425500     0.969819  Biso 1.000000     C
    C   1.0     0.544853     0.925505     0.469808  Biso 1.000000     C
    C   1.0     0.544843     0.925511     0.969811  Biso 1.000000     C
    C   1.0     0.290155     0.068292     0.414695  Biso 1.000000     C
    C   1.0     0.290161     0.068293     0.914702  Biso 1.000000     C
    C   1.0     0.290139     0.568283     0.414705  Biso 1.000000     C
    C   1.0     0.290150     0.568289     0.914710  Biso 1.000000     C
    C   1.0     0.790138     0.068304     0.414688  Biso 1.000000     C
    C   1.0     0.790154     0.068287     0.914706  Biso 1.000000     C
    C   1.0     0.790136     0.568285     0.414701  Biso 1.000000     C
    C   1.0     0.790142     0.568285     0.914714  Biso 1.000000     C
    N   1.0     0.268400     0.375342     0.272749  Biso 1.000000     N
    N   1.0     0.268403     0.375349     0.772756  Biso 1.000000     N
    N   1.0     0.268402     0.875351     0.272740  Biso 1.000000     N
    N   1.0     0.268409     0.875350     0.772753  Biso 1.000000     N
    N   1.0     0.768387     0.375346     0.272743  Biso 1.000000     N
    N   1.0     0.768399     0.375347     0.772758  Biso 1.000000     N
    N   1.0     0.768399     0.875346     0.272745  Biso 1.000000     N
    N   1.0     0.768399     0.875350     0.772752  Biso 1.000000     N
    N   1.0     0.358300     0.387315     0.236034  Biso 1.000000     N
    N   1.0     0.358308     0.387318     0.736048  Biso 1.000000     N
    N   1.0     0.358306     0.887321     0.236029  Biso 1.000000     N
    N   1.0     0.358315     0.887319     0.736047  Biso 1.000000     N
    N   1.0     0.858290     0.387320     0.236035  Biso 1.000000     N
    N   1.0     0.858300     0.387318     0.736046  Biso 1.000000     N
    N   1.0     0.858299     0.887318     0.236030  Biso 1.000000     N
    N   1.0     0.858302     0.887321     0.736043  Biso 1.000000     N
    N   1.0     0.416701     0.124212     0.227235  Biso 1.000000     N
    N   1.0     0.416712     0.124218     0.727243  Biso 1.000000     N
    N   1.0     0.416701     0.624214     0.227236  Biso 1.000000     N
    N   1.0     0.416717     0.624215     0.727246  Biso 1.000000     N
    N   1.0     0.916690     0.124216     0.227230  Biso 1.000000     N
    N   1.0     0.916706     0.124217     0.727244  Biso 1.000000     N
    N   1.0     0.916695     0.624212     0.227238  Biso 1.000000     N
    N   1.0     0.916704     0.624215     0.727247  Biso 1.000000     N
    N   1.0     0.481781     0.112282     0.264048  Biso 1.000000     N
    N   1.0     0.481793     0.112287     0.764055  Biso 1.000000     N
    N   1.0     0.481778     0.612287     0.264050  Biso 1.000000     N
    N   1.0     0.481791     0.612286     0.764063  Biso 1.000000     N
    N   1.0     0.981773     0.112289     0.264040  Biso 1.000000     N
    N   1.0     0.981784     0.112284     0.764060  Biso 1.000000     N
    N   1.0     0.981773     0.612284     0.264051  Biso 1.000000     N
    N   1.0     0.981780     0.612287     0.764062  Biso 1.000000     N
    N   1.0     0.018348     0.022937     0.125209  Biso 1.000000     N
    N   1.0     0.018353     0.022939     0.625216  Biso 1.000000     N
    N   1.0     0.018341     0.522930     0.125217  Biso 1.000000     N
    N   1.0     0.018344     0.522931     0.625224  Biso 1.000000     N
    N   1.0     0.518336     0.022934     0.125212  Biso 1.000000     N
    N   1.0     0.518344     0.022942     0.625214  Biso 1.000000     N
    N   1.0     0.518330     0.522927     0.125220  Biso 1.000000     N
    N   1.0     0.518340     0.522932     0.625221  Biso 1.000000     N
    N   1.0     0.108194     0.486220     0.137234  Biso 1.000000     N
    N   1.0     0.108199     0.486226     0.637240  Biso 1.000000     N
    N   1.0     0.108191     0.986223     0.137228  Biso 1.000000     N
    N   1.0     0.108203     0.986234     0.637230  Biso 1.000000     N
    N   1.0     0.608184     0.486219     0.137236  Biso 1.000000     N
    N   1.0     0.608193     0.486224     0.637238  Biso 1.000000     N
    N   1.0     0.608182     0.986224     0.137229  Biso 1.000000     N
    N   1.0     0.608192     0.986236     0.637230  Biso 1.000000     N
    N   1.0     0.166818     0.477245     0.374071  Biso 1.000000     N
    N   1.0     0.166825     0.477255     0.874073  Biso 1.000000     N
    N   1.0     0.166823     0.977259     0.374057  Biso 1.000000     N
    N   1.0     0.166826     0.977264     0.874062  Biso 1.000000     N
    N   1.0     0.666809     0.477249     0.374067  Biso 1.000000     N
    N   1.0     0.666817     0.477253     0.874075  Biso 1.000000     N
    N   1.0     0.666816     0.977260     0.374058  Biso 1.000000     N
    N   1.0     0.666814     0.977262     0.874064  Biso 1.000000     N
    N   1.0     0.231903     0.014061     0.362162  Biso 1.000000     N
    N   1.0     0.231905     0.014066     0.862169  Biso 1.000000     N
    N   1.0     0.231892     0.514050     0.362172  Biso 1.000000     N
    N   1.0     0.231898     0.514061     0.862175  Biso 1.000000     N
    N   1.0     0.731892     0.014066     0.362160  Biso 1.000000     N
    N   1.0     0.731897     0.014061     0.862172  Biso 1.000000     N
    N   1.0     0.731885     0.514053     0.362168  Biso 1.000000     N
    N   1.0     0.731892     0.514057     0.862178  Biso 1.000000     N
   Cu   1.0     0.168906     0.442756     0.306808  Biso 1.000000    Cu
   Cu   1.0     0.168908     0.442772     0.806805  Biso 1.000000    Cu
   Cu   1.0     0.168909     0.942776     0.306789  Biso 1.000000    Cu
   Cu   1.0     0.168910     0.942779     0.806795  Biso 1.000000    Cu
   Cu   1.0     0.668895     0.442763     0.306801  Biso 1.000000    Cu
   Cu   1.0     0.668903     0.442769     0.806807  Biso 1.000000    Cu
   Cu   1.0     0.668905     0.942769     0.306795  Biso 1.000000    Cu
   Cu   1.0     0.668900     0.942778     0.806796  Biso 1.000000    Cu
   Cu   1.0     0.418863     0.057112     0.192549  Biso 1.000000    Cu
   Cu   1.0     0.418875     0.057127     0.692546  Biso 1.000000    Cu
   Cu   1.0     0.418859     0.557107     0.192559  Biso 1.000000    Cu
   Cu   1.0     0.418878     0.557121     0.692554  Biso 1.000000    Cu
   Cu   1.0     0.918855     0.057115     0.192544  Biso 1.000000    Cu
   Cu   1.0     0.918872     0.057124     0.692549  Biso 1.000000    Cu
   Cu   1.0     0.918855     0.557110     0.192555  Biso 1.000000    Cu
   Cu   1.0     0.918865     0.557119     0.692558  Biso 1.000000    Cu
   Br   1.0     0.248907     0.048012     0.201466  Biso 1.000000    Br
   Br   1.0     0.248922     0.048013     0.701468  Biso 1.000000    Br
   Br   1.0     0.248905     0.548007     0.201477  Biso 1.000000    Br
   Br   1.0     0.248921     0.548012     0.701478  Biso 1.000000    Br
   Br   1.0     0.748902     0.048010     0.201465  Biso 1.000000    Br
   Br   1.0     0.748916     0.048012     0.701472  Biso 1.000000    Br
   Br   1.0     0.748899     0.548010     0.201474  Biso 1.000000    Br
   Br   1.0     0.748909     0.548010     0.701481  Biso 1.000000    Br
   Br   1.0     0.498864     0.451630     0.297933  Biso 1.000000    Br
   Br   1.0     0.498882     0.451630     0.797931  Biso 1.000000    Br
   Br   1.0     0.498878     0.951627     0.297924  Biso 1.000000    Br
   Br   1.0     0.498882     0.951631     0.797923  Biso 1.000000    Br
   Br   1.0     0.998863     0.451626     0.297930  Biso 1.000000    Br
   Br   1.0     0.998870     0.451631     0.797933  Biso 1.000000    Br
   Br   1.0     0.998865     0.951633     0.297922  Biso 1.000000    Br
   Br   1.0     0.998875     0.951630     0.797924  Biso 1.000000    Br
