#======================================================================

# CRYSTAL DATA

#----------------------------------------------------------------------

data_VESTA_phase_1


_pd_phase_name                         MOF
_cell_length_a                         19.66900
_cell_length_b                         24.18400
_cell_length_c                         15.40200
_cell_angle_alpha                      95.45300
_cell_angle_beta                       98.28500
_cell_angle_gamma                      113.61700
_symmetry_space_group_name_H-M         "P 1"
_symmetry_Int_Tables_number            1

loop_
_symmetry_equiv_pos_as_xyz
   "x, y, z"

loop_
   _atom_site_label
   _atom_site_occupancy
   _atom_site_fract_x
   _atom_site_fract_y
   _atom_site_fract_z
   _atom_site_adp_type
   _atom_site_B_iso_or_equiv
   _atom_site_type_symbol
    H   1.0     0.169568     0.020176     0.155750  Biso 1.000000     H
    H   1.0     0.169570     0.520175     0.155748  Biso 1.000000     H
    H   1.0     0.669589     0.020171     0.155751  Biso 1.000000     H
    H   1.0     0.669591     0.520169     0.155750  Biso 1.000000     H
    H   1.0     0.461226     0.408658     0.986559  Biso 1.000000     H
    H   1.0     0.461228     0.908658     0.986556  Biso 1.000000     H
    H   1.0     0.961230     0.408654     0.986559  Biso 1.000000     H
    H   1.0     0.961232     0.908654     0.986556  Biso 1.000000     H
    H   1.0     0.409286     0.426116     0.359655  Biso 1.000000     H
    H   1.0     0.409292     0.926113     0.359658  Biso 1.000000     H
    H   1.0     0.909304     0.426115     0.359654  Biso 1.000000     H
    H   1.0     0.909310     0.926112     0.359658  Biso 1.000000     H
    H   1.0     0.317121     0.050020     0.294287  Biso 1.000000     H
    H   1.0     0.317121     0.550015     0.294284  Biso 1.000000     H
    H   1.0     0.817139     0.050020     0.294290  Biso 1.000000     H
    H   1.0     0.817140     0.550015     0.294288  Biso 1.000000     H
    H   1.0     0.124944     0.404009     0.277465  Biso 1.000000     H
    H   1.0     0.124949     0.904006     0.277464  Biso 1.000000     H
    H   1.0     0.624963     0.404008     0.277464  Biso 1.000000     H
    H   1.0     0.624967     0.904004     0.277463  Biso 1.000000     H
    H   1.0     0.099329     0.054490     0.405126  Biso 1.000000     H
    H   1.0     0.099330     0.554485     0.405127  Biso 1.000000     H
    H   1.0     0.599352     0.054491     0.405125  Biso 1.000000     H
    H   1.0     0.599352     0.554485     0.405126  Biso 1.000000     H
    H   1.0     0.411436     0.254615     0.166611  Biso 1.000000     H
    H   1.0     0.411440     0.754612     0.166602  Biso 1.000000     H
    H   1.0     0.911456     0.254613     0.166608  Biso 1.000000     H
    H   1.0     0.911460     0.754610     0.166599  Biso 1.000000     H
    H   1.0     0.235242     0.314521     0.099934  Biso 1.000000     H
    H   1.0     0.235246     0.814519     0.099939  Biso 1.000000     H
    H   1.0     0.735262     0.314519     0.099933  Biso 1.000000     H
    H   1.0     0.735266     0.814517     0.099938  Biso 1.000000     H
    H   1.0     0.138891     0.206160     0.068754  Biso 1.000000     H
    H   1.0     0.138893     0.706159     0.068762  Biso 1.000000     H
    H   1.0     0.638909     0.206158     0.068750  Biso 1.000000     H
    H   1.0     0.638912     0.706157     0.068760  Biso 1.000000     H
    H   1.0     0.180763     0.121601     0.074450  Biso 1.000000     H
    H   1.0     0.180764     0.621600     0.074454  Biso 1.000000     H
    H   1.0     0.680783     0.121599     0.074446  Biso 1.000000     H
    H   1.0     0.680784     0.621598     0.074450  Biso 1.000000     H
    H   1.0     0.143574     0.248071     0.312877  Biso 1.000000     H
    H   1.0     0.143575     0.748069     0.312876  Biso 1.000000     H
    H   1.0     0.643594     0.248070     0.312877  Biso 1.000000     H
    H   1.0     0.643596     0.748068     0.312876  Biso 1.000000     H
    H   1.0     0.365112     0.276600     0.446913  Biso 1.000000     H
    H   1.0     0.365109     0.776595     0.446924  Biso 1.000000     H
    H   1.0     0.865133     0.276598     0.446909  Biso 1.000000     H
    H   1.0     0.865130     0.776593     0.446920  Biso 1.000000     H
    H   1.0     0.336793     0.167609     0.391123  Biso 1.000000     H
    H   1.0     0.336789     0.667603     0.391136  Biso 1.000000     H
    H   1.0     0.836813     0.167607     0.391116  Biso 1.000000     H
    H   1.0     0.836809     0.667601     0.391129  Biso 1.000000     H
    H   1.0     0.210893     0.099816     0.293772  Biso 1.000000     H
    H   1.0     0.210891     0.599812     0.293779  Biso 1.000000     H
    H   1.0     0.710913     0.099815     0.293767  Biso 1.000000     H
    H   1.0     0.710912     0.599811     0.293774  Biso 1.000000     H
    H   1.0     0.330471     0.479791     0.844294  Biso 1.000000     H
    H   1.0     0.330474     0.979787     0.844294  Biso 1.000000     H
    H   1.0     0.830492     0.479785     0.844296  Biso 1.000000     H
    H   1.0     0.830495     0.979782     0.844295  Biso 1.000000     H
    H   1.0     0.038830     0.091324     0.013480  Biso 1.000000     H
    H   1.0     0.038831     0.591323     0.013476  Biso 1.000000     H
    H   1.0     0.538833     0.091319     0.013479  Biso 1.000000     H
    H   1.0     0.538834     0.591318     0.013476  Biso 1.000000     H
    H   1.0     0.090745     0.073863     0.640375  Biso 1.000000     H
    H   1.0     0.090751     0.573860     0.640379  Biso 1.000000     H
    H   1.0     0.590764     0.073862     0.640375  Biso 1.000000     H
    H   1.0     0.590769     0.573859     0.640379  Biso 1.000000     H
    H   1.0     0.182906     0.449955     0.705751  Biso 1.000000     H
    H   1.0     0.182907     0.949950     0.705749  Biso 1.000000     H
    H   1.0     0.682924     0.449955     0.705754  Biso 1.000000     H
    H   1.0     0.682926     0.949950     0.705752  Biso 1.000000     H
    H   1.0     0.375075     0.095959     0.722569  Biso 1.000000     H
    H   1.0     0.375079     0.595956     0.722567  Biso 1.000000     H
    H   1.0     0.875094     0.095958     0.722568  Biso 1.000000     H
    H   1.0     0.875097     0.595954     0.722566  Biso 1.000000     H
    H   1.0     0.400705     0.445486     0.594903  Biso 1.000000     H
    H   1.0     0.400705     0.945481     0.594905  Biso 1.000000     H
    H   1.0     0.900727     0.445487     0.594902  Biso 1.000000     H
    H   1.0     0.900727     0.945481     0.594904  Biso 1.000000     H
    H   1.0     0.088591     0.245367     0.833420  Biso 1.000000     H
    H   1.0     0.088596     0.745364     0.833409  Biso 1.000000     H
    H   1.0     0.588610     0.245366     0.833419  Biso 1.000000     H
    H   1.0     0.588614     0.745363     0.833411  Biso 1.000000     H
    H   1.0     0.264781     0.185454     0.900078  Biso 1.000000     H
    H   1.0     0.264784     0.685452     0.900083  Biso 1.000000     H
    H   1.0     0.764799     0.185452     0.900075  Biso 1.000000     H
    H   1.0     0.764802     0.685450     0.900081  Biso 1.000000     H
    H   1.0     0.361138     0.293813     0.931250  Biso 1.000000     H
    H   1.0     0.361141     0.793811     0.931259  Biso 1.000000     H
    H   1.0     0.861157     0.293811     0.931247  Biso 1.000000     H
    H   1.0     0.861159     0.793808     0.931255  Biso 1.000000     H
    H   1.0     0.319270     0.378374     0.925560  Biso 1.000000     H
    H   1.0     0.319272     0.878372     0.925563  Biso 1.000000     H
    H   1.0     0.819290     0.378373     0.925558  Biso 1.000000     H
    H   1.0     0.819292     0.878370     0.925561  Biso 1.000000     H
    H   1.0     0.356456     0.251898     0.687155  Biso 1.000000     H
    H   1.0     0.356458     0.751895     0.687154  Biso 1.000000     H
    H   1.0     0.856476     0.251897     0.687154  Biso 1.000000     H
    H   1.0     0.856479     0.751895     0.687152  Biso 1.000000     H
    H   1.0     0.134934     0.223379     0.553079  Biso 1.000000     H
    H   1.0     0.134931     0.723374     0.553090  Biso 1.000000     H
    H   1.0     0.634955     0.223377     0.553074  Biso 1.000000     H
    H   1.0     0.634952     0.723372     0.553085  Biso 1.000000     H
    H   1.0     0.163256     0.332372     0.608861  Biso 1.000000     H
    H   1.0     0.163253     0.832366     0.608876  Biso 1.000000     H
    H   1.0     0.663276     0.332370     0.608855  Biso 1.000000     H
    H   1.0     0.663273     0.832365     0.608869  Biso 1.000000     H
    H   1.0     0.289148     0.400160     0.706231  Biso 1.000000     H
    H   1.0     0.289147     0.900155     0.706239  Biso 1.000000     H
    H   1.0     0.789168     0.400158     0.706226  Biso 1.000000     H
    H   1.0     0.789167     0.900154     0.706235  Biso 1.000000     H
    C   1.0     0.127146     0.490498     0.098844  Biso 1.000000     C
    C   1.0     0.127149     0.990493     0.098844  Biso 1.000000     C
    C   1.0     0.627166     0.490494     0.098846  Biso 1.000000     C
    C   1.0     0.627168     0.990489     0.098846  Biso 1.000000     C
    C   1.0     0.021475     0.434202     0.012244  Biso 1.000000     C
    C   1.0     0.021477     0.934201     0.012243  Biso 1.000000     C
    C   1.0     0.521493     0.434202     0.012245  Biso 1.000000     C
    C   1.0     0.521495     0.934201     0.012243  Biso 1.000000     C
    C   1.0     0.398833     0.461691     0.330124  Biso 1.000000     C
    C   1.0     0.398839     0.961688     0.330128  Biso 1.000000     C
    C   1.0     0.898851     0.461690     0.330125  Biso 1.000000     C
    C   1.0     0.898856     0.961687     0.330129  Biso 1.000000     C
    C   1.0     0.350856     0.023851     0.296761  Biso 1.000000     C
    C   1.0     0.350856     0.523846     0.296758  Biso 1.000000     C
    C   1.0     0.850873     0.023850     0.296763  Biso 1.000000     C
    C   1.0     0.850874     0.523846     0.296760  Biso 1.000000     C
    C   1.0     0.132727     0.443690     0.323975  Biso 1.000000     C
    C   1.0     0.132731     0.943687     0.323973  Biso 1.000000     C
    C   1.0     0.632745     0.443689     0.323974  Biso 1.000000     C
    C   1.0     0.632749     0.943685     0.323972  Biso 1.000000     C
    C   1.0     0.118645     0.019370     0.388662  Biso 1.000000     C
    C   1.0     0.118645     0.519364     0.388663  Biso 1.000000     C
    C   1.0     0.618665     0.019369     0.388661  Biso 1.000000     C
    C   1.0     0.618665     0.519364     0.388662  Biso 1.000000     C
    C   1.0     0.324336     0.132741     0.127624  Biso 1.000000     C
    C   1.0     0.324338     0.632737     0.127624  Biso 1.000000     C
    C   1.0     0.824354     0.132740     0.127626  Biso 1.000000     C
    C   1.0     0.824356     0.632736     0.127622  Biso 1.000000     C
    C   1.0     0.387189     0.356607     0.148605  Biso 1.000000     C
    C   1.0     0.387189     0.856606     0.148604  Biso 1.000000     C
    C   1.0     0.887205     0.356605     0.148607  Biso 1.000000     C
    C   1.0     0.887206     0.856604     0.148603  Biso 1.000000     C
    C   1.0     0.298537     0.182635     0.120967  Biso 1.000000     C
    C   1.0     0.298539     0.682633     0.120966  Biso 1.000000     C
    C   1.0     0.798554     0.182634     0.120971  Biso 1.000000     C
    C   1.0     0.798559     0.682631     0.120962  Biso 1.000000     C
    C   1.0     0.351934     0.243980     0.143477  Biso 1.000000     C
    C   1.0     0.351939     0.743977     0.143465  Biso 1.000000     C
    C   1.0     0.851954     0.243978     0.143471  Biso 1.000000     C
    C   1.0     0.851958     0.743975     0.143460  Biso 1.000000     C
    C   1.0     0.329383     0.291393     0.134111  Biso 1.000000     C
    C   1.0     0.329387     0.791390     0.134100  Biso 1.000000     C
    C   1.0     0.829401     0.291391     0.134108  Biso 1.000000     C
    C   1.0     0.829406     0.791388     0.134095  Biso 1.000000     C
    C   1.0     0.252202     0.277248     0.107382  Biso 1.000000     C
    C   1.0     0.252205     0.777245     0.107383  Biso 1.000000     C
    C   1.0     0.752220     0.277245     0.107379  Biso 1.000000     C
    C   1.0     0.752224     0.777243     0.107380  Biso 1.000000     C
    C   1.0     0.198722     0.216532     0.088734  Biso 1.000000     C
    C   1.0     0.198724     0.716530     0.088738  Biso 1.000000     C
    C   1.0     0.698740     0.216530     0.088729  Biso 1.000000     C
    C   1.0     0.698743     0.716528     0.088736  Biso 1.000000     C
    C   1.0     0.221724     0.169147     0.092949  Biso 1.000000     C
    C   1.0     0.221726     0.669145     0.092955  Biso 1.000000     C
    C   1.0     0.721742     0.169145     0.092949  Biso 1.000000     C
    C   1.0     0.721745     0.669143     0.092951  Biso 1.000000     C
    C   1.0     0.093969     0.128045     0.240656  Biso 1.000000     C
    C   1.0     0.093970     0.628041     0.240657  Biso 1.000000     C
    C   1.0     0.593986     0.128042     0.240653  Biso 1.000000     C
    C   1.0     0.593986     0.628039     0.240656  Biso 1.000000     C
    C   1.0     0.275575     0.334855     0.413857  Biso 1.000000     C
    C   1.0     0.275576     0.834852     0.413860  Biso 1.000000     C
    C   1.0     0.775597     0.334853     0.413856  Biso 1.000000     C
    C   1.0     0.775597     0.834850     0.413858  Biso 1.000000     C
    C   1.0     0.169256     0.169385     0.297971  Biso 1.000000     C
    C   1.0     0.169256     0.669382     0.297974  Biso 1.000000     C
    C   1.0     0.669274     0.169384     0.297966  Biso 1.000000     C
    C   1.0     0.669273     0.669380     0.297972  Biso 1.000000     C
    C   1.0     0.185736     0.230396     0.329995  Biso 1.000000     C
    C   1.0     0.185737     0.730393     0.329997  Biso 1.000000     C
    C   1.0     0.685756     0.230395     0.329993  Biso 1.000000     C
    C   1.0     0.685757     0.730392     0.329994  Biso 1.000000     C
    C   1.0     0.256404     0.268933     0.383013  Biso 1.000000     C
    C   1.0     0.256403     0.768929     0.383018  Biso 1.000000     C
    C   1.0     0.756425     0.268931     0.383010  Biso 1.000000     C
    C   1.0     0.756424     0.768927     0.383014  Biso 1.000000     C
    C   1.0     0.310576     0.245962     0.405245  Biso 1.000000     C
    C   1.0     0.310575     0.745958     0.405253  Biso 1.000000     C
    C   1.0     0.810597     0.245960     0.405240  Biso 1.000000     C
    C   1.0     0.810595     0.745956     0.405249  Biso 1.000000     C
    C   1.0     0.294331     0.185125     0.373849  Biso 1.000000     C
    C   1.0     0.294329     0.685120     0.373858  Biso 1.000000     C
    C   1.0     0.794351     0.185123     0.373843  Biso 1.000000     C
    C   1.0     0.794349     0.685118     0.373852  Biso 1.000000     C
    C   1.0     0.224282     0.147215     0.319962  Biso 1.000000     C
    C   1.0     0.224281     0.647211     0.319969  Biso 1.000000     C
    C   1.0     0.724302     0.147214     0.319957  Biso 1.000000     C
    C   1.0     0.724300     0.647210     0.319964  Biso 1.000000     C
    C   1.0     0.372895     0.009473     0.901197  Biso 1.000000     C
    C   1.0     0.372895     0.509469     0.901197  Biso 1.000000     C
    C   1.0     0.872914     0.009469     0.901199  Biso 1.000000     C
    C   1.0     0.872915     0.509465     0.901199  Biso 1.000000     C
    C   1.0     0.478566     0.065771     0.987795  Biso 1.000000     C
    C   1.0     0.478567     0.565769     0.987794  Biso 1.000000     C
    C   1.0     0.978585     0.065772     0.987796  Biso 1.000000     C
    C   1.0     0.978586     0.565770     0.987795  Biso 1.000000     C
    C   1.0     0.101196     0.038287     0.669906  Biso 1.000000     C
    C   1.0     0.101202     0.538285     0.669910  Biso 1.000000     C
    C   1.0     0.601214     0.038286     0.669907  Biso 1.000000     C
    C   1.0     0.601219     0.538284     0.669911  Biso 1.000000     C
    C   1.0     0.149173     0.476126     0.703277  Biso 1.000000     C
    C   1.0     0.149174     0.976121     0.703275  Biso 1.000000     C
    C   1.0     0.649191     0.476125     0.703279  Biso 1.000000     C
    C   1.0     0.649192     0.976120     0.703277  Biso 1.000000     C
    C   1.0     0.367295     0.056279     0.676059  Biso 1.000000     C
    C   1.0     0.367299     0.556276     0.676057  Biso 1.000000     C
    C   1.0     0.867314     0.056278     0.676058  Biso 1.000000     C
    C   1.0     0.867317     0.556274     0.676056  Biso 1.000000     C
    C   1.0     0.381387     0.480605     0.611367  Biso 1.000000     C
    C   1.0     0.381387     0.980599     0.611369  Biso 1.000000     C
    C   1.0     0.881407     0.480605     0.611366  Biso 1.000000     C
    C   1.0     0.881408     0.980599     0.611368  Biso 1.000000     C
    C   1.0     0.175698     0.367240     0.872402  Biso 1.000000     C
    C   1.0     0.175701     0.867236     0.872394  Biso 1.000000     C
    C   1.0     0.675717     0.367239     0.872397  Biso 1.000000     C
    C   1.0     0.675719     0.867235     0.872393  Biso 1.000000     C
    C   1.0     0.112838     0.143374     0.851422  Biso 1.000000     C
    C   1.0     0.112840     0.643370     0.851417  Biso 1.000000     C
    C   1.0     0.612856     0.143370     0.851423  Biso 1.000000     C
    C   1.0     0.612857     0.643368     0.851419  Biso 1.000000     C
    C   1.0     0.201494     0.317344     0.879056  Biso 1.000000     C
    C   1.0     0.201499     0.817341     0.879040  Biso 1.000000     C
    C   1.0     0.701514     0.317342     0.879047  Biso 1.000000     C
    C   1.0     0.701518     0.817339     0.879039  Biso 1.000000     C
    C   1.0     0.148093     0.256001     0.856553  Biso 1.000000     C
    C   1.0     0.148097     0.755998     0.856543  Biso 1.000000     C
    C   1.0     0.648112     0.255999     0.856552  Biso 1.000000     C
    C   1.0     0.648116     0.755996     0.856545  Biso 1.000000     C
    C   1.0     0.170642     0.208586     0.865918  Biso 1.000000     C
    C   1.0     0.170648     0.708582     0.865905  Biso 1.000000     C
    C   1.0     0.670660     0.208584     0.865920  Biso 1.000000     C
    C   1.0     0.670664     0.708580     0.865910  Biso 1.000000     C
    C   1.0     0.247824     0.222729     0.892635  Biso 1.000000     C
    C   1.0     0.247828     0.722726     0.892635  Biso 1.000000     C
    C   1.0     0.747842     0.222727     0.892631  Biso 1.000000     C
    C   1.0     0.747845     0.722724     0.892633  Biso 1.000000     C
    C   1.0     0.301307     0.283443     0.911276  Biso 1.000000     C
    C   1.0     0.301310     0.783441     0.911284  Biso 1.000000     C
    C   1.0     0.801326     0.283441     0.911273  Biso 1.000000     C
    C   1.0     0.801328     0.783439     0.911281  Biso 1.000000     C
    C   1.0     0.278307     0.330829     0.907062  Biso 1.000000     C
    C   1.0     0.278311     0.830827     0.907063  Biso 1.000000     C
    C   1.0     0.778326     0.330828     0.907060  Biso 1.000000     C
    C   1.0     0.778329     0.830825     0.907061  Biso 1.000000     C
    C   1.0     0.406066     0.371929     0.759367  Biso 1.000000     C
    C   1.0     0.406066     0.871924     0.759372  Biso 1.000000     C
    C   1.0     0.906082     0.371926     0.759366  Biso 1.000000     C
    C   1.0     0.906083     0.871922     0.759369  Biso 1.000000     C
    C   1.0     0.224458     0.165117     0.586163  Biso 1.000000     C
    C   1.0     0.224458     0.665113     0.586167  Biso 1.000000     C
    C   1.0     0.724479     0.165115     0.586163  Biso 1.000000     C
    C   1.0     0.724479     0.665112     0.586166  Biso 1.000000     C
    C   1.0     0.330782     0.330588     0.702045  Biso 1.000000     C
    C   1.0     0.330780     0.830583     0.702054  Biso 1.000000     C
    C   1.0     0.830799     0.330586     0.702043  Biso 1.000000     C
    C   1.0     0.830799     0.830582     0.702048  Biso 1.000000     C
    C   1.0     0.314298     0.269575     0.670028  Biso 1.000000     C
    C   1.0     0.314298     0.769572     0.670030  Biso 1.000000     C
    C   1.0     0.814318     0.269574     0.670025  Biso 1.000000     C
    C   1.0     0.814319     0.769571     0.670026  Biso 1.000000     C
    C   1.0     0.243634     0.231041     0.616999  Biso 1.000000     C
    C   1.0     0.243632     0.731037     0.617006  Biso 1.000000     C
    C   1.0     0.743654     0.231039     0.616997  Biso 1.000000     C
    C   1.0     0.743654     0.731036     0.617002  Biso 1.000000     C
    C   1.0     0.189466     0.254015     0.594755  Biso 1.000000     C
    C   1.0     0.189464     0.754010     0.594765  Biso 1.000000     C
    C   1.0     0.689486     0.254013     0.594751  Biso 1.000000     C
    C   1.0     0.689485     0.754009     0.594760  Biso 1.000000     C
    C   1.0     0.205712     0.314853     0.626150  Biso 1.000000     C
    C   1.0     0.205711     0.814848     0.626158  Biso 1.000000     C
    C   1.0     0.705733     0.314851     0.626143  Biso 1.000000     C
    C   1.0     0.705731     0.814847     0.626152  Biso 1.000000     C
    C   1.0     0.275758     0.352760     0.680044  Biso 1.000000     C
    C   1.0     0.275757     0.852756     0.680052  Biso 1.000000     C
    C   1.0     0.775777     0.352759     0.680040  Biso 1.000000     C
    C   1.0     0.775776     0.852754     0.680048  Biso 1.000000     C
    N   1.0     0.143282     0.476721     0.020491  Biso 1.000000     N
    N   1.0     0.143284     0.976717     0.020491  Biso 1.000000     N
    N   1.0     0.643300     0.476717     0.020492  Biso 1.000000     N
    N   1.0     0.643302     0.976713     0.020492  Biso 1.000000     N
    N   1.0     0.074664     0.440494     0.964232  Biso 1.000000     N
    N   1.0     0.074666     0.940492     0.964231  Biso 1.000000     N
    N   1.0     0.574681     0.440493     0.964232  Biso 1.000000     N
    N   1.0     0.574683     0.940491     0.964231  Biso 1.000000     N
    N   1.0     0.051971     0.464515     0.096792  Biso 1.000000     N
    N   1.0     0.051973     0.964511     0.096792  Biso 1.000000     N
    N   1.0     0.551990     0.464513     0.096795  Biso 1.000000     N
    N   1.0     0.551992     0.964510     0.096794  Biso 1.000000     N
    N   1.0     0.434659     0.490769     0.269833  Biso 1.000000     N
    N   1.0     0.434664     0.990767     0.269837  Biso 1.000000     N
    N   1.0     0.934674     0.490768     0.269832  Biso 1.000000     N
    N   1.0     0.934679     0.990765     0.269836  Biso 1.000000     N
    N   1.0     0.403651     0.030735     0.247848  Biso 1.000000     N
    N   1.0     0.403651     0.530729     0.247845  Biso 1.000000     N
    N   1.0     0.903666     0.030733     0.247848  Biso 1.000000     N
    N   1.0     0.903666     0.530727     0.247844  Biso 1.000000     N
    N   1.0     0.345815     0.481050     0.349307  Biso 1.000000     N
    N   1.0     0.345821     0.981047     0.349311  Biso 1.000000     N
    N   1.0     0.845834     0.481050     0.349310  Biso 1.000000     N
    N   1.0     0.845839     0.981046     0.349314  Biso 1.000000     N
    N   1.0     0.185416     0.466069     0.398792  Biso 1.000000     N
    N   1.0     0.185419     0.966066     0.398792  Biso 1.000000     N
    N   1.0     0.685433     0.466067     0.398792  Biso 1.000000     N
    N   1.0     0.685437     0.966064     0.398790  Biso 1.000000     N
    N   1.0     0.175977     0.014812     0.440735  Biso 1.000000     N
    N   1.0     0.175977     0.514806     0.440737  Biso 1.000000     N
    N   1.0     0.675997     0.014811     0.440734  Biso 1.000000     N
    N   1.0     0.675998     0.514806     0.440735  Biso 1.000000     N
    N   1.0     0.090216     0.475869     0.314734  Biso 1.000000     N
    N   1.0     0.090220     0.975866     0.314733  Biso 1.000000     N
    N   1.0     0.590234     0.475868     0.314733  Biso 1.000000     N
    N   1.0     0.590239     0.975865     0.314731  Biso 1.000000     N
    N   1.0     0.356761     0.023247     0.979553  Biso 1.000000     N
    N   1.0     0.356762     0.523245     0.979552  Biso 1.000000     N
    N   1.0     0.856779     0.023243     0.979554  Biso 1.000000     N
    N   1.0     0.856780     0.523240     0.979554  Biso 1.000000     N
    N   1.0     0.425379     0.059476     0.035810  Biso 1.000000     N
    N   1.0     0.425380     0.559476     0.035808  Biso 1.000000     N
    N   1.0     0.925396     0.059475     0.035810  Biso 1.000000     N
    N   1.0     0.925398     0.559474     0.035809  Biso 1.000000     N
    N   1.0     0.448069     0.035459     0.903246  Biso 1.000000     N
    N   1.0     0.448070     0.535456     0.903245  Biso 1.000000     N
    N   1.0     0.948088     0.035458     0.903248  Biso 1.000000     N
    N   1.0     0.948089     0.535454     0.903247  Biso 1.000000     N
    N   1.0     0.065372     0.009211     0.730200  Biso 1.000000     N
    N   1.0     0.065378     0.509210     0.730205  Biso 1.000000     N
    N   1.0     0.565388     0.009210     0.730199  Biso 1.000000     N
    N   1.0     0.565393     0.509208     0.730203  Biso 1.000000     N
    N   1.0     0.096382     0.469247     0.752193  Biso 1.000000     N
    N   1.0     0.096383     0.969242     0.752190  Biso 1.000000     N
    N   1.0     0.596397     0.469246     0.752193  Biso 1.000000     N
    N   1.0     0.596398     0.969240     0.752190  Biso 1.000000     N
    N   1.0     0.154211     0.018924     0.650722  Biso 1.000000     N
    N   1.0     0.154215     0.518921     0.650725  Biso 1.000000     N
    N   1.0     0.654230     0.018924     0.650725  Biso 1.000000     N
    N   1.0     0.654234     0.518921     0.650728  Biso 1.000000     N
    N   1.0     0.314607     0.033898     0.601242  Biso 1.000000     N
    N   1.0     0.314610     0.533894     0.601240  Biso 1.000000     N
    N   1.0     0.814625     0.033896     0.601241  Biso 1.000000     N
    N   1.0     0.814628     0.533893     0.601239  Biso 1.000000     N
    N   1.0     0.324051     0.485159     0.559295  Biso 1.000000     N
    N   1.0     0.324051     0.985153     0.559298  Biso 1.000000     N
    N   1.0     0.824071     0.485158     0.559294  Biso 1.000000     N
    N   1.0     0.824071     0.985152     0.559296  Biso 1.000000     N
    N   1.0     0.409811     0.024104     0.685299  Biso 1.000000     N
    N   1.0     0.409815     0.524100     0.685297  Biso 1.000000     N
    N   1.0     0.909829     0.024103     0.685298  Biso 1.000000     N
    N   1.0     0.909833     0.524100     0.685296  Biso 1.000000     N
    O   1.0     0.278433     0.077367     0.092849  Biso 1.000000     O
    O   1.0     0.278433     0.577363     0.092851  Biso 1.000000     O
    O   1.0     0.778453     0.077366     0.092843  Biso 1.000000     O
    O   1.0     0.778452     0.577361     0.092849  Biso 1.000000     O
    O   1.0     0.391574     0.148160     0.170353  Biso 1.000000     O
    O   1.0     0.391573     0.648155     0.170357  Biso 1.000000     O
    O   1.0     0.891592     0.148159     0.170354  Biso 1.000000     O
    O   1.0     0.891590     0.648154     0.170360  Biso 1.000000     O
    O   1.0     0.450202     0.370741     0.203852  Biso 1.000000     O
    O   1.0     0.450201     0.870738     0.203852  Biso 1.000000     O
    O   1.0     0.950218     0.370737     0.203851  Biso 1.000000     O
    O   1.0     0.950218     0.870736     0.203852  Biso 1.000000     O
    O   1.0     0.373798     0.394930     0.107367  Biso 1.000000     O
    O   1.0     0.373795     0.894931     0.107378  Biso 1.000000     O
    O   1.0     0.873817     0.394928     0.107367  Biso 1.000000     O
    O   1.0     0.873812     0.894931     0.107380  Biso 1.000000     O
    O   1.0     0.079366     0.072904     0.213217  Biso 1.000000     O
    O   1.0     0.079366     0.572901     0.213221  Biso 1.000000     O
    O   1.0     0.579383     0.072902     0.213218  Biso 1.000000     O
    O   1.0     0.579384     0.572899     0.213218  Biso 1.000000     O
    O   1.0     0.046722     0.152208     0.221933  Biso 1.000000     O
    O   1.0     0.046724     0.652205     0.221933  Biso 1.000000     O
    O   1.0     0.546737     0.152205     0.221934  Biso 1.000000     O
    O   1.0     0.546739     0.652202     0.221932  Biso 1.000000     O
    O   1.0     0.222439     0.353239     0.392522  Biso 1.000000     O
    O   1.0     0.222440     0.853236     0.392521  Biso 1.000000     O
    O   1.0     0.722460     0.353237     0.392522  Biso 1.000000     O
    O   1.0     0.722460     0.853234     0.392522  Biso 1.000000     O
    O   1.0     0.340702     0.370934     0.456246  Biso 1.000000     O
    O   1.0     0.340702     0.870931     0.456247  Biso 1.000000     O
    O   1.0     0.840723     0.370932     0.456244  Biso 1.000000     O
    O   1.0     0.840724     0.870929     0.456245  Biso 1.000000     O
    O   1.0     0.221607     0.422614     0.907174  Biso 1.000000     O
    O   1.0     0.221606     0.922608     0.907180  Biso 1.000000     O
    O   1.0     0.721626     0.422612     0.907173  Biso 1.000000     O
    O   1.0     0.721626     0.922606     0.907176  Biso 1.000000     O
    O   1.0     0.108463     0.351826     0.829673  Biso 1.000000     O
    O   1.0     0.108461     0.851821     0.829680  Biso 1.000000     O
    O   1.0     0.608480     0.351825     0.829675  Biso 1.000000     O
    O   1.0     0.608478     0.851821     0.829680  Biso 1.000000     O
    O   1.0     0.049823     0.129240     0.796179  Biso 1.000000     O
    O   1.0     0.049822     0.629239     0.796181  Biso 1.000000     O
    O   1.0     0.549841     0.129238     0.796179  Biso 1.000000     O
    O   1.0     0.549840     0.629236     0.796181  Biso 1.000000     O
    O   1.0     0.126233     0.105049     0.892650  Biso 1.000000     O
    O   1.0     0.126227     0.605050     0.892665  Biso 1.000000     O
    O   1.0     0.626250     0.105045     0.892650  Biso 1.000000     O
    O   1.0     0.626245     0.605046     0.892662  Biso 1.000000     O
    O   1.0     0.420670     0.427070     0.786801  Biso 1.000000     O
    O   1.0     0.420672     0.927067     0.786798  Biso 1.000000     O
    O   1.0     0.920687     0.427067     0.786797  Biso 1.000000     O
    O   1.0     0.920688     0.927064     0.786801  Biso 1.000000     O
    O   1.0     0.453310     0.347765     0.778103  Biso 1.000000     O
    O   1.0     0.453313     0.847762     0.778100  Biso 1.000000     O
    O   1.0     0.953325     0.347761     0.778103  Biso 1.000000     O
    O   1.0     0.953327     0.847758     0.778101  Biso 1.000000     O
    O   1.0     0.277589     0.146729     0.607511  Biso 1.000000     O
    O   1.0     0.277591     0.646726     0.607510  Biso 1.000000     O
    O   1.0     0.777610     0.146727     0.607511  Biso 1.000000     O
    O   1.0     0.777612     0.646725     0.607510  Biso 1.000000     O
    O   1.0     0.159331     0.129039     0.543776  Biso 1.000000     O
    O   1.0     0.159332     0.629036     0.543775  Biso 1.000000     O
    O   1.0     0.659353     0.129037     0.543773  Biso 1.000000     O
    O   1.0     0.659353     0.629034     0.543775  Biso 1.000000     O
   Zn   1.0     0.004312     0.463317     0.207415  Biso 1.000000    Zn
   Zn   1.0     0.004314     0.963315     0.207416  Biso 1.000000    Zn
   Zn   1.0     0.504326     0.463319     0.207417  Biso 1.000000    Zn
   Zn   1.0     0.504328     0.963316     0.207418  Biso 1.000000    Zn
   Zn   1.0     0.273728     0.442494     0.433247  Biso 1.000000    Zn
   Zn   1.0     0.273731     0.942491     0.433247  Biso 1.000000    Zn
   Zn   1.0     0.773745     0.442492     0.433247  Biso 1.000000    Zn
   Zn   1.0     0.773748     0.942489     0.433248  Biso 1.000000    Zn
   Zn   1.0     0.056689     0.407060     0.832818  Biso 1.000000    Zn
   Zn   1.0     0.056691     0.907057     0.832818  Biso 1.000000    Zn
   Zn   1.0     0.556702     0.407057     0.832817  Biso 1.000000    Zn
   Zn   1.0     0.556704     0.907055     0.832816  Biso 1.000000    Zn
   Zn   1.0     0.495720     0.036659     0.792614  Biso 1.000000    Zn
   Zn   1.0     0.495722     0.536656     0.792615  Biso 1.000000    Zn
   Zn   1.0     0.995733     0.036660     0.792616  Biso 1.000000    Zn
   Zn   1.0     0.995736     0.536658     0.792617  Biso 1.000000    Zn
   Zn   1.0     0.226296     0.057474     0.566785  Biso 1.000000    Zn
   Zn   1.0     0.226299     0.557471     0.566785  Biso 1.000000    Zn
   Zn   1.0     0.726313     0.057472     0.566785  Biso 1.000000    Zn
   Zn   1.0     0.726316     0.557469     0.566785  Biso 1.000000    Zn
   Zn   1.0     0.443341     0.092920     0.167219  Biso 1.000000    Zn
   Zn   1.0     0.443342     0.592917     0.167219  Biso 1.000000    Zn
   Zn   1.0     0.943354     0.092918     0.167218  Biso 1.000000    Zn
   Zn   1.0     0.943356     0.592915     0.167218  Biso 1.000000    Zn
   Zn   1.0     0.250018    -0.000019     0.000003  Biso 1.000000    Zn
   Zn   1.0     0.250020     0.499977     0.000003  Biso 1.000000    Zn
   Zn   1.0     0.750037    -0.000023     0.000003  Biso 1.000000    Zn
   Zn   1.0     0.750039     0.499974     0.000003  Biso 1.000000    Zn
