#======================================================================

# CRYSTAL DATA

#----------------------------------------------------------------------

data_VESTA_phase_1


_pd_phase_name                         MOF
_cell_length_a                         19.87200
_cell_length_b                         23.96500
_cell_length_c                         15.36700
_cell_angle_alpha                      95.50000
_cell_angle_beta                       98.16700
_cell_angle_gamma                      113.34200
_symmetry_space_group_name_H-M         "P 1"
_symmetry_Int_Tables_number            1

loop_
_symmetry_equiv_pos_as_xyz
   "x, y, z"

loop_
   _atom_site_label
   _atom_site_occupancy
   _atom_site_fract_x
   _atom_site_fract_y
   _atom_site_fract_z
   _atom_site_adp_type
   _atom_site_B_iso_or_equiv
   _atom_site_type_symbol
    H   1.0     0.385656     0.263781     0.941909  Biso 1.000000     H
    H   1.0     0.385580     0.763748     0.941967  Biso 1.000000     H
    H   1.0     0.885665     0.263781     0.941907  Biso 1.000000     H
    H   1.0     0.885589     0.763748     0.941967  Biso 1.000000     H
    H   1.0     0.129605     0.325800     0.557307  Biso 1.000000     H
    H   1.0     0.129778     0.825968     0.557021  Biso 1.000000     H
    H   1.0     0.629612     0.325798     0.557309  Biso 1.000000     H
    H   1.0     0.629787     0.825968     0.557019  Biso 1.000000     H
    H   1.0     0.330423     0.478809     0.844313  Biso 1.000000     H
    H   1.0     0.330427     0.978811     0.844313  Biso 1.000000     H
    H   1.0     0.830432     0.478809     0.844313  Biso 1.000000     H
    H   1.0     0.830436     0.978810     0.844313  Biso 1.000000     H
    H   1.0     0.035062     0.095948     0.012280  Biso 1.000000     H
    H   1.0     0.035049     0.595954     0.012279  Biso 1.000000     H
    H   1.0     0.535070     0.095948     0.012280  Biso 1.000000     H
    H   1.0     0.535057     0.595954     0.012279  Biso 1.000000     H
    H   1.0     0.371802     0.094315     0.726125  Biso 1.000000     H
    H   1.0     0.371874     0.594345     0.726081  Biso 1.000000     H
    H   1.0     0.871810     0.094315     0.726125  Biso 1.000000     H
    H   1.0     0.871883     0.594345     0.726081  Biso 1.000000     H
    H   1.0     0.404265     0.448477     0.590438  Biso 1.000000     H
    H   1.0     0.404337     0.948529     0.590429  Biso 1.000000     H
    H   1.0     0.904274     0.448477     0.590439  Biso 1.000000     H
    H   1.0     0.904346     0.948529     0.590429  Biso 1.000000     H
    H   1.0     0.092543     0.077071     0.641846  Biso 1.000000     H
    H   1.0     0.092525     0.577037     0.641812  Biso 1.000000     H
    H   1.0     0.592551     0.077071     0.641846  Biso 1.000000     H
    H   1.0     0.592533     0.577037     0.641812  Biso 1.000000     H
    H   1.0     0.179880     0.448248     0.700739  Biso 1.000000     H
    H   1.0     0.179805     0.948197     0.700682  Biso 1.000000     H
    H   1.0     0.679889     0.448248     0.700740  Biso 1.000000     H
    H   1.0     0.679814     0.948197     0.700682  Biso 1.000000     H
    H   1.0     0.091427     0.244674     0.833088  Biso 1.000000     H
    H   1.0     0.091377     0.744680     0.833067  Biso 1.000000     H
    H   1.0     0.591436     0.244674     0.833084  Biso 1.000000     H
    H   1.0     0.591386     0.744680     0.833064  Biso 1.000000     H
    H   1.0     0.266595     0.185521     0.904066  Biso 1.000000     H
    H   1.0     0.266515     0.685498     0.904079  Biso 1.000000     H
    H   1.0     0.766604     0.185521     0.904066  Biso 1.000000     H
    H   1.0     0.766523     0.685497     0.904077  Biso 1.000000     H
    H   1.0     0.319345     0.379503     0.924257  Biso 1.000000     H
    H   1.0     0.319303     0.879486     0.924268  Biso 1.000000     H
    H   1.0     0.819353     0.379502     0.924254  Biso 1.000000     H
    H   1.0     0.819312     0.879485     0.924267  Biso 1.000000     H
    H   1.0     0.357338     0.251059     0.688218  Biso 1.000000     H
    H   1.0     0.357247     0.751030     0.688241  Biso 1.000000     H
    H   1.0     0.857344     0.251058     0.688224  Biso 1.000000     H
    H   1.0     0.857255     0.751030     0.688243  Biso 1.000000     H
    H   1.0     0.144117     0.233045     0.549580  Biso 1.000000     H
    H   1.0     0.144111     0.733119     0.549480  Biso 1.000000     H
    H   1.0     0.644125     0.233044     0.549582  Biso 1.000000     H
    H   1.0     0.644120     0.733118     0.549480  Biso 1.000000     H
    H   1.0     0.301243     0.407022     0.708166  Biso 1.000000     H
    H   1.0     0.301269     0.907056     0.708141  Biso 1.000000     H
    H   1.0     0.801250     0.407021     0.708168  Biso 1.000000     H
    H   1.0     0.801277     0.907056     0.708141  Biso 1.000000     H
    H   1.0     0.114454     0.236262     0.058060  Biso 1.000000     H
    H   1.0     0.114375     0.736226     0.058120  Biso 1.000000     H
    H   1.0     0.614462     0.236261     0.058059  Biso 1.000000     H
    H   1.0     0.614383     0.736226     0.058122  Biso 1.000000     H
    H   1.0     0.370251     0.174041     0.443019  Biso 1.000000     H
    H   1.0     0.370428     0.674213     0.442729  Biso 1.000000     H
    H   1.0     0.870260     0.174041     0.443018  Biso 1.000000     H
    H   1.0     0.870436     0.674213     0.442728  Biso 1.000000     H
    H   1.0     0.169607     0.021201     0.155719  Biso 1.000000     H
    H   1.0     0.169611     0.521202     0.155720  Biso 1.000000     H
    H   1.0     0.669615     0.021201     0.155720  Biso 1.000000     H
    H   1.0     0.669620     0.521202     0.155720  Biso 1.000000     H
    H   1.0     0.464986     0.404054     0.987757  Biso 1.000000     H
    H   1.0     0.464973     0.904059     0.987755  Biso 1.000000     H
    H   1.0     0.964994     0.404053     0.987757  Biso 1.000000     H
    H   1.0     0.964981     0.904059     0.987755  Biso 1.000000     H
    H   1.0     0.128156     0.405663     0.273955  Biso 1.000000     H
    H   1.0     0.128228     0.905694     0.273912  Biso 1.000000     H
    H   1.0     0.628164     0.405663     0.273955  Biso 1.000000     H
    H   1.0     0.628237     0.905694     0.273911  Biso 1.000000     H
    H   1.0     0.095693     0.051480     0.409604  Biso 1.000000     H
    H   1.0     0.095766     0.551533     0.409595  Biso 1.000000     H
    H   1.0     0.595702     0.051480     0.409604  Biso 1.000000     H
    H   1.0     0.595775     0.551533     0.409594  Biso 1.000000     H
    H   1.0     0.407507     0.422973     0.358223  Biso 1.000000     H
    H   1.0     0.407489     0.922940     0.358189  Biso 1.000000     H
    H   1.0     0.907515     0.422973     0.358223  Biso 1.000000     H
    H   1.0     0.907497     0.922940     0.358189  Biso 1.000000     H
    H   1.0     0.320224     0.051812     0.299350  Biso 1.000000     H
    H   1.0     0.320150     0.551761     0.299293  Biso 1.000000     H
    H   1.0     0.820233     0.051812     0.299350  Biso 1.000000     H
    H   1.0     0.820159     0.551761     0.299293  Biso 1.000000     H
    H   1.0     0.408656     0.255331     0.166973  Biso 1.000000     H
    H   1.0     0.408606     0.755338     0.166952  Biso 1.000000     H
    H   1.0     0.908665     0.255331     0.166971  Biso 1.000000     H
    H   1.0     0.908613     0.755338     0.166958  Biso 1.000000     H
    H   1.0     0.233519     0.314513     0.095953  Biso 1.000000     H
    H   1.0     0.233436     0.814488     0.095966  Biso 1.000000     H
    H   1.0     0.733528     0.314513     0.095953  Biso 1.000000     H
    H   1.0     0.733444     0.814488     0.095968  Biso 1.000000     H
    H   1.0     0.180731     0.120525     0.075766  Biso 1.000000     H
    H   1.0     0.180690     0.620507     0.075778  Biso 1.000000     H
    H   1.0     0.680740     0.120525     0.075764  Biso 1.000000     H
    H   1.0     0.680698     0.620507     0.075781  Biso 1.000000     H
    H   1.0     0.142782     0.248977     0.311794  Biso 1.000000     H
    H   1.0     0.142693     0.748950     0.311811  Biso 1.000000     H
    H   1.0     0.642791     0.248978     0.311792  Biso 1.000000     H
    H   1.0     0.642701     0.748950     0.311811  Biso 1.000000     H
    H   1.0     0.355918     0.266890     0.450556  Biso 1.000000     H
    H   1.0     0.355914     0.766966     0.450453  Biso 1.000000     H
    H   1.0     0.855927     0.266890     0.450555  Biso 1.000000     H
    H   1.0     0.855922     0.766966     0.450453  Biso 1.000000     H
    H   1.0     0.198762     0.092952     0.291897  Biso 1.000000     H
    H   1.0     0.198790     0.592988     0.291868  Biso 1.000000     H
    H   1.0     0.698771     0.092952     0.291896  Biso 1.000000     H
    H   1.0     0.698798     0.592987     0.291868  Biso 1.000000     H
    C   1.0     0.372130     0.009303     0.900859  Biso 1.000000     C
    C   1.0     0.372123     0.509294     0.900856  Biso 1.000000     C
    C   1.0     0.872138     0.009303     0.900859  Biso 1.000000     C
    C   1.0     0.872132     0.509293     0.900856  Biso 1.000000     C
    C   1.0     0.475997     0.067852     0.986868  Biso 1.000000     C
    C   1.0     0.475986     0.567853     0.986866  Biso 1.000000     C
    C   1.0     0.976006     0.067852     0.986868  Biso 1.000000     C
    C   1.0     0.975994     0.567853     0.986866  Biso 1.000000     C
    C   1.0     0.365981     0.055869     0.677633  Biso 1.000000     C
    C   1.0     0.366015     0.555877     0.677605  Biso 1.000000     C
    C   1.0     0.865989     0.055869     0.677633  Biso 1.000000     C
    C   1.0     0.866024     0.555877     0.677605  Biso 1.000000     C
    C   1.0     0.383562     0.482657     0.608863  Biso 1.000000     C
    C   1.0     0.383599     0.982684     0.608861  Biso 1.000000     C
    C   1.0     0.883570     0.482657     0.608863  Biso 1.000000     C
    C   1.0     0.883607     0.982684     0.608861  Biso 1.000000     C
    C   1.0     0.102170     0.040466     0.670160  Biso 1.000000     C
    C   1.0     0.102176     0.540450     0.670151  Biso 1.000000     C
    C   1.0     0.602178     0.040466     0.670160  Biso 1.000000     C
    C   1.0     0.602184     0.540450     0.670151  Biso 1.000000     C
    C   1.0     0.148423     0.476308     0.701265  Biso 1.000000     C
    C   1.0     0.148372     0.976275     0.701232  Biso 1.000000     C
    C   1.0     0.648432     0.476308     0.701266  Biso 1.000000     C
    C   1.0     0.648380     0.976275     0.701232  Biso 1.000000     C
    C   1.0     0.176493     0.367502     0.870663  Biso 1.000000     C
    C   1.0     0.176468     0.867506     0.870650  Biso 1.000000     C
    C   1.0     0.676499     0.367501     0.870673  Biso 1.000000     C
    C   1.0     0.676475     0.867505     0.870657  Biso 1.000000     C
    C   1.0     0.117104     0.142438     0.854255  Biso 1.000000     C
    C   1.0     0.117039     0.642430     0.854238  Biso 1.000000     C
    C   1.0     0.617112     0.142438     0.854260  Biso 1.000000     C
    C   1.0     0.617047     0.642430     0.854241  Biso 1.000000     C
    C   1.0     0.202699     0.317451     0.877806  Biso 1.000000     C
    C   1.0     0.202657     0.817446     0.877800  Biso 1.000000     C
    C   1.0     0.702708     0.317451     0.877805  Biso 1.000000     C
    C   1.0     0.702665     0.817446     0.877799  Biso 1.000000     C
    C   1.0     0.150223     0.255700     0.856383  Biso 1.000000     C
    C   1.0     0.150171     0.755697     0.856367  Biso 1.000000     C
    C   1.0     0.650231     0.255700     0.856389  Biso 1.000000     C
    C   1.0     0.650179     0.755697     0.856371  Biso 1.000000     C
    C   1.0     0.173396     0.208400     0.867069  Biso 1.000000     C
    C   1.0     0.173331     0.708393     0.867069  Biso 1.000000     C
    C   1.0     0.673405     0.208400     0.867063  Biso 1.000000     C
    C   1.0     0.673340     0.708392     0.867064  Biso 1.000000     C
    C   1.0     0.249519     0.222887     0.894434  Biso 1.000000     C
    C   1.0     0.249451     0.722870     0.894439  Biso 1.000000     C
    C   1.0     0.749527     0.222887     0.894439  Biso 1.000000     C
    C   1.0     0.749459     0.722870     0.894441  Biso 1.000000     C
    C   1.0     0.301799     0.284227     0.911803  Biso 1.000000     C
    C   1.0     0.301740     0.784207     0.911819  Biso 1.000000     C
    C   1.0     0.801809     0.284227     0.911795  Biso 1.000000     C
    C   1.0     0.801749     0.784206     0.911813  Biso 1.000000     C
    C   1.0     0.278610     0.331840     0.906054  Biso 1.000000     C
    C   1.0     0.278563     0.831825     0.906056  Biso 1.000000     C
    C   1.0     0.778618     0.331840     0.906058  Biso 1.000000     C
    C   1.0     0.778571     0.831825     0.906058  Biso 1.000000     C
    C   1.0     0.412291     0.372825     0.760761  Biso 1.000000     C
    C   1.0     0.412260     0.872807     0.760778  Biso 1.000000     C
    C   1.0     0.912304     0.372829     0.760747  Biso 1.000000     C
    C   1.0     0.912269     0.872808     0.760775  Biso 1.000000     C
    C   1.0     0.225133     0.168203     0.584564  Biso 1.000000     C
    C   1.0     0.225046     0.668214     0.584536  Biso 1.000000     C
    C   1.0     0.725145     0.168205     0.584552  Biso 1.000000     C
    C   1.0     0.725056     0.668214     0.584533  Biso 1.000000     C
    C   1.0     0.337155     0.333198     0.703886  Biso 1.000000     C
    C   1.0     0.337122     0.833197     0.703895  Biso 1.000000     C
    C   1.0     0.837162     0.333197     0.703890  Biso 1.000000     C
    C   1.0     0.837130     0.833197     0.703896  Biso 1.000000     C
    C   1.0     0.318030     0.271257     0.670950  Biso 1.000000     C
    C   1.0     0.317966     0.771251     0.670958  Biso 1.000000     C
    C   1.0     0.818041     0.271259     0.670943  Biso 1.000000     C
    C   1.0     0.817975     0.771251     0.670956  Biso 1.000000     C
    C   1.0     0.248064     0.235385     0.616609  Biso 1.000000     C
    C   1.0     0.248009     0.735404     0.616578  Biso 1.000000     C
    C   1.0     0.748070     0.235384     0.616614  Biso 1.000000     C
    C   1.0     0.748017     0.735404     0.616579  Biso 1.000000     C
    C   1.0     0.197941     0.261826     0.593047  Biso 1.000000     C
    C   1.0     0.197926     0.761877     0.592981  Biso 1.000000     C
    C   1.0     0.697951     0.261827     0.593041  Biso 1.000000     C
    C   1.0     0.697935     0.761877     0.592979  Biso 1.000000     C
    C   1.0     0.217752     0.323847     0.625052  Biso 1.000000     C
    C   1.0     0.217769     0.823904     0.624989  Biso 1.000000     C
    C   1.0     0.717755     0.323844     0.625063  Biso 1.000000     C
    C   1.0     0.717776     0.823903     0.624992  Biso 1.000000     C
    C   1.0     0.286429     0.359036     0.681867  Biso 1.000000     C
    C   1.0     0.286430     0.859064     0.681849  Biso 1.000000     C
    C   1.0     0.786439     0.359037     0.681862  Biso 1.000000     C
    C   1.0     0.786439     0.859064     0.681848  Biso 1.000000     C
    C   1.0     0.127911     0.490718     0.099176  Biso 1.000000     C
    C   1.0     0.127904     0.990708     0.099174  Biso 1.000000     C
    C   1.0     0.627920     0.490717     0.099176  Biso 1.000000     C
    C   1.0     0.627913     0.990708     0.099174  Biso 1.000000     C
    C   1.0     0.024049     0.432156     0.013168  Biso 1.000000     C
    C   1.0     0.024037     0.932157     0.013166  Biso 1.000000     C
    C   1.0     0.524057     0.432156     0.013168  Biso 1.000000     C
    C   1.0     0.524046     0.932157     0.013166  Biso 1.000000     C
    C   1.0     0.134015     0.444131     0.322430  Biso 1.000000     C
    C   1.0     0.134049     0.944140     0.322402  Biso 1.000000     C
    C   1.0     0.634023     0.444131     0.322430  Biso 1.000000     C
    C   1.0     0.634057     0.944140     0.322402  Biso 1.000000     C
    C   1.0     0.116431     0.017326     0.391173  Biso 1.000000     C
    C   1.0     0.116470     0.517353     0.391171  Biso 1.000000     C
    C   1.0     0.616440     0.017326     0.391173  Biso 1.000000     C
    C   1.0     0.616478     0.517353     0.391171  Biso 1.000000     C
    C   1.0     0.397856     0.459561     0.329883  Biso 1.000000     C
    C   1.0     0.397862     0.959544     0.329874  Biso 1.000000     C
    C   1.0     0.897864     0.459561     0.329883  Biso 1.000000     C
    C   1.0     0.897870     0.959544     0.329874  Biso 1.000000     C
    C   1.0     0.351658     0.023735     0.298801  Biso 1.000000     C
    C   1.0     0.351608     0.523702     0.298768  Biso 1.000000     C
    C   1.0     0.851667     0.023735     0.298801  Biso 1.000000     C
    C   1.0     0.851616     0.523701     0.298768  Biso 1.000000     C
    C   1.0     0.323569     0.132507     0.129379  Biso 1.000000     C
    C   1.0     0.323546     0.632511     0.129362  Biso 1.000000     C
    C   1.0     0.823576     0.132507     0.129385  Biso 1.000000     C
    C   1.0     0.823557     0.632512     0.129349  Biso 1.000000     C
    C   1.0     0.382996     0.357580     0.145795  Biso 1.000000     C
    C   1.0     0.382929     0.857572     0.145776  Biso 1.000000     C
    C   1.0     0.883003     0.357580     0.145798  Biso 1.000000     C
    C   1.0     0.882939     0.857571     0.145770  Biso 1.000000     C
    C   1.0     0.297377     0.182565     0.122236  Biso 1.000000     C
    C   1.0     0.297335     0.682560     0.122230  Biso 1.000000     C
    C   1.0     0.797386     0.182565     0.122236  Biso 1.000000     C
    C   1.0     0.797343     0.682559     0.122232  Biso 1.000000     C
    C   1.0     0.349863     0.244314     0.143666  Biso 1.000000     C
    C   1.0     0.349810     0.744311     0.143646  Biso 1.000000     C
    C   1.0     0.849871     0.244314     0.143669  Biso 1.000000     C
    C   1.0     0.849820     0.744311     0.143638  Biso 1.000000     C
    C   1.0     0.326702     0.291619     0.132970  Biso 1.000000     C
    C   1.0     0.326636     0.791610     0.132972  Biso 1.000000     C
    C   1.0     0.826710     0.291618     0.132967  Biso 1.000000     C
    C   1.0     0.826644     0.791611     0.132979  Biso 1.000000     C
    C   1.0     0.250583     0.277141     0.105591  Biso 1.000000     C
    C   1.0     0.250513     0.777122     0.105594  Biso 1.000000     C
    C   1.0     0.750591     0.277141     0.105594  Biso 1.000000     C
    C   1.0     0.750523     0.777122     0.105588  Biso 1.000000     C
    C   1.0     0.198294     0.215804     0.088219  Biso 1.000000     C
    C   1.0     0.198233     0.715782     0.088237  Biso 1.000000     C
    C   1.0     0.698303     0.215804     0.088214  Biso 1.000000     C
    C   1.0     0.698241     0.715782     0.088248  Biso 1.000000     C
    C   1.0     0.221471     0.168186     0.093975  Biso 1.000000     C
    C   1.0     0.221425     0.668170     0.093975  Biso 1.000000     C
    C   1.0     0.721479     0.168185     0.093977  Biso 1.000000     C
    C   1.0     0.721434     0.668170     0.093971  Biso 1.000000     C
    C   1.0     0.087774     0.127203     0.239245  Biso 1.000000     C
    C   1.0     0.087737     0.627181     0.239281  Biso 1.000000     C
    C   1.0     0.587781     0.127202     0.239250  Biso 1.000000     C
    C   1.0     0.587746     0.627181     0.239279  Biso 1.000000     C
    C   1.0     0.274987     0.331796     0.415490  Biso 1.000000     C
    C   1.0     0.274895     0.831805     0.415478  Biso 1.000000     C
    C   1.0     0.774994     0.331796     0.415494  Biso 1.000000     C
    C   1.0     0.774904     0.831805     0.415476  Biso 1.000000     C
    C   1.0     0.162908     0.166811     0.296140  Biso 1.000000     C
    C   1.0     0.162877     0.666811     0.296145  Biso 1.000000     C
    C   1.0     0.662917     0.166811     0.296139  Biso 1.000000     C
    C   1.0     0.662885     0.666811     0.296145  Biso 1.000000     C
    C   1.0     0.182067     0.228758     0.329070  Biso 1.000000     C
    C   1.0     0.181998     0.728751     0.329088  Biso 1.000000     C
    C   1.0     0.682074     0.228758     0.329073  Biso 1.000000     C
    C   1.0     0.682008     0.728751     0.329086  Biso 1.000000     C
    C   1.0     0.252019     0.264604     0.383459  Biso 1.000000     C
    C   1.0     0.251967     0.764625     0.383422  Biso 1.000000     C
    C   1.0     0.752029     0.264604     0.383457  Biso 1.000000     C
    C   1.0     0.751976     0.764624     0.383422  Biso 1.000000     C
    C   1.0     0.302105     0.238133     0.407051  Biso 1.000000     C
    C   1.0     0.302088     0.738183     0.406991  Biso 1.000000     C
    C   1.0     0.802113     0.238132     0.407052  Biso 1.000000     C
    C   1.0     0.802097     0.738183     0.406990  Biso 1.000000     C
    C   1.0     0.282258     0.176104     0.375054  Biso 1.000000     C
    C   1.0     0.282283     0.676165     0.374976  Biso 1.000000     C
    C   1.0     0.782268     0.176104     0.375050  Biso 1.000000     C
    C   1.0     0.782291     0.676164     0.374977  Biso 1.000000     C
    C   1.0     0.213602     0.140945     0.318183  Biso 1.000000     C
    C   1.0     0.213602     0.640973     0.318171  Biso 1.000000     C
    C   1.0     0.713610     0.140945     0.318184  Biso 1.000000     C
    C   1.0     0.713611     0.640973     0.318170  Biso 1.000000     C
    N   1.0     0.355700     0.023105     0.979257  Biso 1.000000     N
    N   1.0     0.355689     0.523104     0.979248  Biso 1.000000     N
    N   1.0     0.855708     0.023105     0.979257  Biso 1.000000     N
    N   1.0     0.855698     0.523103     0.979248  Biso 1.000000     N
    N   1.0     0.446282     0.036583     0.902496  Biso 1.000000     N
    N   1.0     0.446275     0.536574     0.902498  Biso 1.000000     N
    N   1.0     0.946290     0.036583     0.902496  Biso 1.000000     N
    N   1.0     0.946284     0.536574     0.902498  Biso 1.000000     N
    N   1.0     0.423189     0.060703     0.035097  Biso 1.000000     N
    N   1.0     0.423175     0.560708     0.035089  Biso 1.000000     N
    N   1.0     0.923198     0.060703     0.035097  Biso 1.000000     N
    N   1.0     0.923183     0.560708     0.035089  Biso 1.000000     N
    N   1.0     0.410333     0.025092     0.684548  Biso 1.000000     N
    N   1.0     0.410330     0.525068     0.684534  Biso 1.000000     N
    N   1.0     0.910341     0.025092     0.684548  Biso 1.000000     N
    N   1.0     0.910338     0.525068     0.684534  Biso 1.000000     N
    N   1.0     0.314084     0.033841     0.602634  Biso 1.000000     N
    N   1.0     0.314107     0.533853     0.602616  Biso 1.000000     N
    N   1.0     0.814092     0.033841     0.602634  Biso 1.000000     N
    N   1.0     0.814115     0.533853     0.602616  Biso 1.000000     N
    N   1.0     0.325770     0.486656     0.558167  Biso 1.000000     N
    N   1.0     0.325793     0.986664     0.558167  Biso 1.000000     N
    N   1.0     0.825778     0.486656     0.558167  Biso 1.000000     N
    N   1.0     0.825801     0.986664     0.558167  Biso 1.000000     N
    N   1.0     0.065971     0.010398     0.729478  Biso 1.000000     N
    N   1.0     0.065992     0.510389     0.729484  Biso 1.000000     N
    N   1.0     0.565980     0.010398     0.729478  Biso 1.000000     N
    N   1.0     0.566000     0.510388     0.729484  Biso 1.000000     N
    N   1.0     0.096086     0.469365     0.750129  Biso 1.000000     N
    N   1.0     0.096035     0.969338     0.750095  Biso 1.000000     N
    N   1.0     0.596094     0.469365     0.750130  Biso 1.000000     N
    N   1.0     0.596044     0.969338     0.750095  Biso 1.000000     N
    N   1.0     0.154302     0.020537     0.650234  Biso 1.000000     N
    N   1.0     0.154327     0.520538     0.650242  Biso 1.000000     N
    N   1.0     0.654310     0.020537     0.650234  Biso 1.000000     N
    N   1.0     0.654335     0.520538     0.650242  Biso 1.000000     N
    N   1.0     0.144345     0.476910     0.020783  Biso 1.000000     N
    N   1.0     0.144334     0.976908     0.020775  Biso 1.000000     N
    N   1.0     0.644353     0.476909     0.020783  Biso 1.000000     N
    N   1.0     0.644342     0.976908     0.020775  Biso 1.000000     N
    N   1.0     0.053760     0.463434     0.097537  Biso 1.000000     N
    N   1.0     0.053753     0.963426     0.097539  Biso 1.000000     N
    N   1.0     0.553768     0.463434     0.097537  Biso 1.000000     N
    N   1.0     0.553761     0.963425     0.097539  Biso 1.000000     N
    N   1.0     0.076859     0.439304     0.964943  Biso 1.000000     N
    N   1.0     0.076844     0.939309     0.964936  Biso 1.000000     N
    N   1.0     0.576868     0.439303     0.964944  Biso 1.000000     N
    N   1.0     0.576853     0.939308     0.964936  Biso 1.000000     N
    N   1.0     0.089701     0.474940     0.315501  Biso 1.000000     N
    N   1.0     0.089697     0.974916     0.315487  Biso 1.000000     N
    N   1.0     0.589709     0.474940     0.315501  Biso 1.000000     N
    N   1.0     0.589706     0.974916     0.315487  Biso 1.000000     N
    N   1.0     0.185924     0.466157     0.397419  Biso 1.000000     N
    N   1.0     0.185947     0.966169     0.397401  Biso 1.000000     N
    N   1.0     0.685933     0.466156     0.397419  Biso 1.000000     N
    N   1.0     0.685955     0.966168     0.397401  Biso 1.000000     N
    N   1.0     0.174238     0.013346     0.441867  Biso 1.000000     N
    N   1.0     0.174262     0.513354     0.441867  Biso 1.000000     N
    N   1.0     0.674246     0.013346     0.441867  Biso 1.000000     N
    N   1.0     0.674270     0.513353     0.441867  Biso 1.000000     N
    N   1.0     0.434040     0.489622     0.270550  Biso 1.000000     N
    N   1.0     0.434060     0.989612     0.270556  Biso 1.000000     N
    N   1.0     0.934048     0.489622     0.270550  Biso 1.000000     N
    N   1.0     0.934069     0.989612     0.270556  Biso 1.000000     N
    N   1.0     0.403995     0.030671     0.249938  Biso 1.000000     N
    N   1.0     0.403945     0.530645     0.249904  Biso 1.000000     N
    N   1.0     0.904003     0.030671     0.249938  Biso 1.000000     N
    N   1.0     0.903954     0.530645     0.249904  Biso 1.000000     N
    N   1.0     0.345704     0.479472     0.349792  Biso 1.000000     N
    N   1.0     0.345729     0.979473     0.349799  Biso 1.000000     N
    N   1.0     0.845713     0.479472     0.349792  Biso 1.000000     N
    N   1.0     0.845737     0.979473     0.349799  Biso 1.000000     N
    O   1.0     0.221520     0.423506     0.903934  Biso 1.000000     O
    O   1.0     0.221503     0.923507     0.903932  Biso 1.000000     O
    O   1.0     0.721529     0.423507     0.903930  Biso 1.000000     O
    O   1.0     0.721512     0.923507     0.903930  Biso 1.000000     O
    O   1.0     0.109643     0.351308     0.829430  Biso 1.000000     O
    O   1.0     0.109618     0.851318     0.829423  Biso 1.000000     O
    O   1.0     0.609652     0.351308     0.829427  Biso 1.000000     O
    O   1.0     0.609628     0.851319     0.829422  Biso 1.000000     O
    O   1.0     0.053025     0.128976     0.803006  Biso 1.000000     O
    O   1.0     0.052965     0.628964     0.802977  Biso 1.000000     O
    O   1.0     0.553034     0.128976     0.803006  Biso 1.000000     O
    O   1.0     0.552975     0.628964     0.802976  Biso 1.000000     O
    O   1.0     0.133028     0.103972     0.892474  Biso 1.000000     O
    O   1.0     0.132959     0.603962     0.892462  Biso 1.000000     O
    O   1.0     0.633037     0.103970     0.892473  Biso 1.000000     O
    O   1.0     0.632968     0.603962     0.892461  Biso 1.000000     O
    O   1.0     0.377225     0.300832     0.937372  Biso 1.000000     O
    O   1.0     0.377162     0.800801     0.937393  Biso 1.000000     O
    O   1.0     0.877234     0.300832     0.937374  Biso 1.000000     O
    O   1.0     0.877171     0.800801     0.937394  Biso 1.000000     O
    O   1.0     0.427701     0.428081     0.792504  Biso 1.000000     O
    O   1.0     0.427697     0.928071     0.792506  Biso 1.000000     O
    O   1.0     0.927708     0.428080     0.792510  Biso 1.000000     O
    O   1.0     0.927705     0.928071     0.792508  Biso 1.000000     O
    O   1.0     0.458599     0.347604     0.773673  Biso 1.000000     O
    O   1.0     0.458553     0.847573     0.773695  Biso 1.000000     O
    O   1.0     0.958606     0.347604     0.773677  Biso 1.000000     O
    O   1.0     0.958561     0.847573     0.773696  Biso 1.000000     O
    O   1.0     0.276423     0.147609     0.603091  Biso 1.000000     O
    O   1.0     0.276327     0.647610     0.603079  Biso 1.000000     O
    O   1.0     0.776432     0.147609     0.603094  Biso 1.000000     O
    O   1.0     0.776336     0.647610     0.603079  Biso 1.000000     O
    O   1.0     0.159751     0.134047     0.544219  Biso 1.000000     O
    O   1.0     0.159664     0.634077     0.544182  Biso 1.000000     O
    O   1.0     0.659759     0.134047     0.544222  Biso 1.000000     O
    O   1.0     0.659672     0.634077     0.544183  Biso 1.000000     O
    O   1.0     0.172102     0.353328     0.603402  Biso 1.000000     O
    O   1.0     0.172159     0.853418     0.603314  Biso 1.000000     O
    O   1.0     0.672111     0.353328     0.603399  Biso 1.000000     O
    O   1.0     0.672168     0.853418     0.603312  Biso 1.000000     O
    O   1.0     0.278532     0.076505     0.096107  Biso 1.000000     O
    O   1.0     0.278517     0.576505     0.096106  Biso 1.000000     O
    O   1.0     0.778541     0.076505     0.096105  Biso 1.000000     O
    O   1.0     0.778524     0.576503     0.096110  Biso 1.000000     O
    O   1.0     0.390416     0.148694     0.170613  Biso 1.000000     O
    O   1.0     0.390393     0.648705     0.170607  Biso 1.000000     O
    O   1.0     0.890425     0.148694     0.170611  Biso 1.000000     O
    O   1.0     0.890400     0.648704     0.170610  Biso 1.000000     O
    O   1.0     0.447066     0.371046     0.197064  Biso 1.000000     O
    O   1.0     0.447005     0.871034     0.197032  Biso 1.000000     O
    O   1.0     0.947075     0.371046     0.197064  Biso 1.000000     O
    O   1.0     0.947012     0.871033     0.197033  Biso 1.000000     O
    O   1.0     0.367077     0.396048     0.107573  Biso 1.000000     O
    O   1.0     0.367004     0.896039     0.107561  Biso 1.000000     O
    O   1.0     0.867085     0.396048     0.107572  Biso 1.000000     O
    O   1.0     0.867012     0.896040     0.107562  Biso 1.000000     O
    O   1.0     0.122872     0.199209     0.062636  Biso 1.000000     O
    O   1.0     0.122808     0.699176     0.062656  Biso 1.000000     O
    O   1.0     0.622880     0.199208     0.062638  Biso 1.000000     O
    O   1.0     0.622816     0.699176     0.062654  Biso 1.000000     O
    O   1.0     0.072331     0.071934     0.207535  Biso 1.000000     O
    O   1.0     0.072330     0.571927     0.207529  Biso 1.000000     O
    O   1.0     0.572340     0.071935     0.207532  Biso 1.000000     O
    O   1.0     0.572338     0.571926     0.207530  Biso 1.000000     O
    O   1.0     0.041478     0.152435     0.226338  Biso 1.000000     O
    O   1.0     0.041434     0.652405     0.226353  Biso 1.000000     O
    O   1.0     0.541487     0.152435     0.226336  Biso 1.000000     O
    O   1.0     0.541443     0.652405     0.226354  Biso 1.000000     O
    O   1.0     0.223704     0.352400     0.396957  Biso 1.000000     O
    O   1.0     0.223607     0.852401     0.396941  Biso 1.000000     O
    O   1.0     0.723713     0.352399     0.396956  Biso 1.000000     O
    O   1.0     0.723616     0.852401     0.396941  Biso 1.000000     O
    O   1.0     0.340367     0.365931     0.455854  Biso 1.000000     O
    O   1.0     0.340280     0.865962     0.455813  Biso 1.000000     O
    O   1.0     0.840376     0.365931     0.455853  Biso 1.000000     O
    O   1.0     0.840289     0.865961     0.455813  Biso 1.000000     O
    O   1.0     0.327873     0.146593     0.396723  Biso 1.000000     O
    O   1.0     0.327930     0.646683     0.396636  Biso 1.000000     O
    O   1.0     0.827881     0.146592     0.396723  Biso 1.000000     O
    O   1.0     0.827939     0.646683     0.396635  Biso 1.000000     O
   Zn   1.0     0.495247     0.036319     0.792565  Biso 1.000000    Zn
   Zn   1.0     0.495245     0.536296     0.792562  Biso 1.000000    Zn
   Zn   1.0     0.995255     0.036319     0.792565  Biso 1.000000    Zn
   Zn   1.0     0.995253     0.536296     0.792562  Biso 1.000000    Zn
   Zn   1.0     0.226428     0.057561     0.566888  Biso 1.000000    Zn
   Zn   1.0     0.226448     0.557572     0.566890  Biso 1.000000    Zn
   Zn   1.0     0.726436     0.057560     0.566888  Biso 1.000000    Zn
   Zn   1.0     0.726456     0.557572     0.566890  Biso 1.000000    Zn
   Zn   1.0     0.059354     0.407975     0.832795  Biso 1.000000    Zn
   Zn   1.0     0.059310     0.907968     0.832787  Biso 1.000000    Zn
   Zn   1.0     0.559362     0.407974     0.832795  Biso 1.000000    Zn
   Zn   1.0     0.559319     0.907968     0.832787  Biso 1.000000    Zn
   Zn   1.0     0.004787     0.463713     0.207472  Biso 1.000000    Zn
   Zn   1.0     0.004784     0.963689     0.207469  Biso 1.000000    Zn
   Zn   1.0     0.504796     0.463713     0.207472  Biso 1.000000    Zn
   Zn   1.0     0.504793     0.963690     0.207469  Biso 1.000000    Zn
   Zn   1.0     0.273583     0.442438     0.433143  Biso 1.000000    Zn
   Zn   1.0     0.273602     0.942450     0.433146  Biso 1.000000    Zn
   Zn   1.0     0.773591     0.442438     0.433144  Biso 1.000000    Zn
   Zn   1.0     0.773611     0.942450     0.433145  Biso 1.000000    Zn
   Zn   1.0     0.440720     0.092041     0.167246  Biso 1.000000    Zn
   Zn   1.0     0.440677     0.592035     0.167239  Biso 1.000000    Zn
   Zn   1.0     0.940728     0.092041     0.167246  Biso 1.000000    Zn
   Zn   1.0     0.940685     0.592035     0.167239  Biso 1.000000    Zn
   Zn   1.0     0.250013     0.000014    -0.000001  Biso 1.000000    Zn
   Zn   1.0     0.250014     0.500007    -0.000001  Biso 1.000000    Zn
   Zn   1.0     0.750021     0.000013    -0.000001  Biso 1.000000    Zn
   Zn   1.0     0.750022     0.500007    -0.000001  Biso 1.000000    Zn
