#======================================================================

# CRYSTAL DATA

#----------------------------------------------------------------------

data_VESTA_phase_1


_pd_phase_name                         MOF
_cell_length_a                         14.77700
_cell_length_b                         15.96600
_cell_length_c                         26.32400
_cell_angle_alpha                      90.01900
_cell_angle_beta                       90.02000
_cell_angle_gamma                      90.03200
_symmetry_space_group_name_H-M         "P 1"
_symmetry_Int_Tables_number            1

loop_
_symmetry_equiv_pos_as_xyz
   "x, y, z"

loop_
   _atom_site_label
   _atom_site_occupancy
   _atom_site_fract_x
   _atom_site_fract_y
   _atom_site_fract_z
   _atom_site_adp_type
   _atom_site_B_iso_or_equiv
   _atom_site_type_symbol
    H   1.0     0.461449     0.426117     0.055851  Biso 1.000000     H
    H   1.0     0.961916     0.425900     0.055296  Biso 1.000000     H
    H   1.0     0.264078     0.803731     0.841743  Biso 1.000000     H
    H   1.0     0.762282     0.804197     0.841610  Biso 1.000000     H
    H   1.0     0.025243     0.552835     0.080541  Biso 1.000000     H
    H   1.0     0.524864     0.552735     0.081078  Biso 1.000000     H
    H   1.0     0.137566     0.514859     0.069294  Biso 1.000000     H
    H   1.0     0.637220     0.514762     0.069878  Biso 1.000000     H
    H   1.0     0.058854     0.384760     0.987172  Biso 1.000000     H
    H   1.0     0.557584     0.385484     0.987208  Biso 1.000000     H
    H   1.0     0.146600     0.363342     0.031922  Biso 1.000000     H
    H   1.0     0.645667     0.363256     0.031607  Biso 1.000000     H
    H   1.0     0.457907     0.278460     0.025975  Biso 1.000000     H
    H   1.0     0.959310     0.277670     0.026120  Biso 1.000000     H
    H   1.0     0.062766     0.231232     0.007412  Biso 1.000000     H
    H   1.0     0.560991     0.231788     0.006796  Biso 1.000000     H
    H   1.0     0.120542     0.241235     0.095766  Biso 1.000000     H
    H   1.0     0.619504     0.240466     0.095027  Biso 1.000000     H
    H   1.0     0.431922     0.311206     0.121499  Biso 1.000000     H
    H   1.0     0.932274     0.311329     0.121364  Biso 1.000000     H
    H   1.0     0.020704     0.295091     0.165518  Biso 1.000000     H
    H   1.0     0.520769     0.293998     0.165274  Biso 1.000000     H
    H   1.0     0.118271     0.399170     0.123523  Biso 1.000000     H
    H   1.0     0.618501     0.398052     0.123346  Biso 1.000000     H
    H   1.0     0.012199     0.443237     0.140819  Biso 1.000000     H
    H   1.0     0.512959     0.442496     0.141275  Biso 1.000000     H
    H   1.0     0.265540     0.652706     0.813463  Biso 1.000000     H
    H   1.0     0.763308     0.652888     0.813531  Biso 1.000000     H
    H   1.0     0.385774     0.666971     0.815751  Biso 1.000000     H
    H   1.0     0.883532     0.666931     0.815979  Biso 1.000000     H
    H   1.0     0.311912     0.755163     0.736445  Biso 1.000000     H
    H   1.0     0.810028     0.755157     0.736384  Biso 1.000000     H
    H   1.0     0.202665     0.750970     0.764034  Biso 1.000000     H
    H   1.0     0.700776     0.751203     0.763966  Biso 1.000000     H
    H   1.0     0.202932     0.908479     0.773715  Biso 1.000000     H
    H   1.0     0.701221     0.908602     0.773620  Biso 1.000000     H
    H   1.0     0.221514     0.878895     0.709615  Biso 1.000000     H
    H   1.0     0.719942     0.879038     0.709507  Biso 1.000000     H
    H   1.0     0.386136     0.901020     0.719332  Biso 1.000000     H
    H   1.0     0.884401     0.901260     0.719208  Biso 1.000000     H
    H   1.0     0.450566     0.949313     0.802812  Biso 1.000000     H
    H   1.0     0.949174     0.949065     0.802640  Biso 1.000000     H
    H   1.0     0.341146     0.951728     0.828918  Biso 1.000000     H
    H   1.0     0.839887     0.951724     0.828886  Biso 1.000000     H
    H   1.0     0.421707     0.821255     0.856435  Biso 1.000000     H
    H   1.0     0.920082     0.821050     0.856283  Biso 1.000000     H
    H   1.0     0.442837     0.794466     0.791856  Biso 1.000000     H
    H   1.0     0.940953     0.794196     0.791685  Biso 1.000000     H
    H   1.0     0.288589     0.573705     0.556266  Biso 1.000000     H
    H   1.0     0.787941     0.574090     0.555779  Biso 1.000000     H
    H   1.0     0.487678     0.196385     0.341663  Biso 1.000000     H
    H   1.0     0.987989     0.195341     0.342172  Biso 1.000000     H
    H   1.0     0.223542     0.447734     0.582162  Biso 1.000000     H
    H   1.0     0.724594     0.447439     0.581212  Biso 1.000000     H
    H   1.0     0.111786     0.486733     0.570357  Biso 1.000000     H
    H   1.0     0.612298     0.485215     0.569686  Biso 1.000000     H
    H   1.0     0.192030     0.615087     0.488040  Biso 1.000000     H
    H   1.0     0.691625     0.614297     0.487198  Biso 1.000000     H
    H   1.0     0.104554     0.637675     0.532718  Biso 1.000000     H
    H   1.0     0.603470     0.636312     0.531602  Biso 1.000000     H
    H   1.0     0.292691     0.721616     0.526587  Biso 1.000000     H
    H   1.0     0.790857     0.721767     0.525990  Biso 1.000000     H
    H   1.0     0.189635     0.768841     0.507844  Biso 1.000000     H
    H   1.0     0.687560     0.768151     0.506920  Biso 1.000000     H
    H   1.0     0.132119     0.760107     0.596242  Biso 1.000000     H
    H   1.0     0.629176     0.758984     0.595094  Biso 1.000000     H
    H   1.0     0.319680     0.688578     0.622009  Biso 1.000000     H
    H   1.0     0.817106     0.689029     0.621588  Biso 1.000000     H
    H   1.0     0.231416     0.706064     0.666083  Biso 1.000000     H
    H   1.0     0.728247     0.706002     0.665334  Biso 1.000000     H
    H   1.0     0.132744     0.602538     0.624471  Biso 1.000000     H
    H   1.0     0.630886     0.601584     0.623354  Biso 1.000000     H
    H   1.0     0.238288     0.557614     0.641859  Biso 1.000000     H
    H   1.0     0.736622     0.557458     0.641245  Biso 1.000000     H
    H   1.0     0.485819     0.347539     0.313670  Biso 1.000000     H
    H   1.0     0.985687     0.346565     0.313923  Biso 1.000000     H
    H   1.0     0.365637     0.333035     0.315834  Biso 1.000000     H
    H   1.0     0.865593     0.331814     0.316723  Biso 1.000000     H
    H   1.0     0.439344     0.245274     0.236508  Biso 1.000000     H
    H   1.0     0.939388     0.243978     0.236982  Biso 1.000000     H
    H   1.0     0.548696     0.249367     0.263984  Biso 1.000000     H
    H   1.0     0.000000     0.248259     0.264427  Biso 1.000000     H
    H   1.0     0.048959     0.090832     0.273955  Biso 1.000000     H
    H   1.0     0.548760     0.091937     0.273366  Biso 1.000000     H
    H   1.0     0.529689     0.121627     0.209350  Biso 1.000000     H
    H   1.0     0.000000     0.120429     0.209905  Biso 1.000000     H
    H   1.0     0.365208     0.098867     0.219235  Biso 1.000000     H
    H   1.0     0.865320     0.097914     0.219936  Biso 1.000000     H
    H   1.0     0.301285     0.050638     0.302794  Biso 1.000000     H
    H   1.0     0.801582     0.049405     0.303503  Biso 1.000000     H
    H   1.0     0.410804     0.048383     0.328774  Biso 1.000000     H
    H   1.0     0.911154     0.047216     0.329412  Biso 1.000000     H
    H   1.0     0.330115     0.178664     0.356491  Biso 1.000000     H
    H   1.0     0.830445     0.177489     0.357122  Biso 1.000000     H
    H   1.0     0.308702     0.205570     0.291967  Biso 1.000000     H
    H   1.0     0.808869     0.204296     0.292602  Biso 1.000000     H
    H   1.0     0.038867     0.925830     0.444627  Biso 1.000000     H
    H   1.0     0.537631     0.926584     0.443540  Biso 1.000000     H
    H   1.0     0.238729     0.304567     0.658136  Biso 1.000000     H
    H   1.0     0.737193     0.303486     0.658235  Biso 1.000000     H
    H   1.0     0.473076     0.052692     0.417791  Biso 1.000000     H
    H   1.0     0.975446     0.052574     0.419288  Biso 1.000000     H
    H   1.0     0.361180     0.014121     0.429796  Biso 1.000000     H
    H   1.0     0.863123     0.014322     0.430344  Biso 1.000000     H
    H   1.0     0.441929     0.886088     0.512268  Biso 1.000000     H
    H   1.0     0.941300     0.884425     0.512507  Biso 1.000000     H
    H   1.0     0.353602     0.863500     0.468043  Biso 1.000000     H
    H   1.0     0.854214     0.862455     0.467423  Biso 1.000000     H
    H   1.0     0.041999     0.778042     0.473921  Biso 1.000000     H
    H   1.0     0.541310     0.778853     0.473559  Biso 1.000000     H
    H   1.0     0.438275     0.732182     0.492887  Biso 1.000000     H
    H   1.0     0.938663     0.730859     0.492237  Biso 1.000000     H
    H   1.0     0.379335     0.740733     0.404749  Biso 1.000000     H
    H   1.0     0.881861     0.740144     0.403733  Biso 1.000000     H
    H   1.0     0.069662     0.811759     0.378499  Biso 1.000000     H
    H   1.0     0.567061     0.811071     0.378007  Biso 1.000000     H
    H   1.0     0.478162     0.793543     0.334308  Biso 1.000000     H
    H   1.0     0.981461     0.794865     0.334265  Biso 1.000000     H
    H   1.0     0.380596     0.897851     0.376069  Biso 1.000000     H
    H   1.0     0.883097     0.898366     0.376060  Biso 1.000000     H
    H   1.0     0.486171     0.942229     0.358075  Biso 1.000000     H
    H   1.0     0.988981     0.943087     0.358996  Biso 1.000000     H
    H   1.0     0.237921     0.153521     0.686491  Biso 1.000000     H
    H   1.0     0.735234     0.152422     0.686356  Biso 1.000000     H
    H   1.0     0.117690     0.167272     0.684273  Biso 1.000000     H
    H   1.0     0.615040     0.166821     0.684030  Biso 1.000000     H
    H   1.0     0.191277     0.256017     0.763477  Biso 1.000000     H
    H   1.0     0.688658     0.255056     0.763432  Biso 1.000000     H
    H   1.0     0.300502     0.252352     0.735821  Biso 1.000000     H
    H   1.0     0.798042     0.250648     0.736029  Biso 1.000000     H
    H   1.0     0.299570     0.409724     0.726075  Biso 1.000000     H
    H   1.0     0.798388     0.408080     0.726316  Biso 1.000000     H
    H   1.0     0.280979     0.380272     0.790204  Biso 1.000000     H
    H   1.0     0.779308     0.378690     0.790393  Biso 1.000000     H
    H   1.0     0.116344     0.401622     0.780411  Biso 1.000000     H
    H   1.0     0.614891     0.401234     0.780418  Biso 1.000000     H
    H   1.0     0.051682     0.449360     0.696936  Biso 1.000000     H
    H   1.0     0.550960     0.449323     0.696797  Biso 1.000000     H
    H   1.0     0.161031     0.452143     0.670775  Biso 1.000000     H
    H   1.0     0.660473     0.451474     0.670836  Biso 1.000000     H
    H   1.0     0.080986     0.321166     0.643467  Biso 1.000000     H
    H   1.0     0.579614     0.321080     0.643300  Biso 1.000000     H
    H   1.0     0.060075     0.294576     0.708093  Biso 1.000000     H
    H   1.0     0.558203     0.294434     0.707866  Biso 1.000000     H
    H   1.0     0.212725     0.073319     0.943814  Biso 1.000000     H
    H   1.0     0.712466     0.073501     0.944011  Biso 1.000000     H
    H   1.0     0.013271     0.695941     0.157846  Biso 1.000000     H
    H   1.0     0.513402     0.696180     0.157968  Biso 1.000000     H
    H   1.0     0.277139     0.947118     0.917870  Biso 1.000000     H
    H   1.0     0.777713     0.947517     0.918041  Biso 1.000000     H
    H   1.0     0.389082     0.985768     0.929703  Biso 1.000000     H
    H   1.0     0.889375     0.986875     0.929821  Biso 1.000000     H
    H   1.0     0.309160     0.114008     0.012214  Biso 1.000000     H
    H   1.0     0.809373     0.115212     0.012008  Biso 1.000000     H
    H   1.0     0.396979     0.136479     0.967702  Biso 1.000000     H
    H   1.0     0.896517     0.137884     0.967145  Biso 1.000000     H
    H   1.0     0.209331     0.221156     0.973707  Biso 1.000000     H
    H   1.0     0.708304     0.221446     0.973602  Biso 1.000000     H
    H   1.0     0.312553     0.267854     0.992720  Biso 1.000000     H
    H   1.0     0.811422     0.268950     0.992084  Biso 1.000000     H
    H   1.0     0.370636     0.258971     0.904428  Biso 1.000000     H
    H   1.0     0.868394     0.260077     0.903608  Biso 1.000000     H
    H   1.0     0.182609     0.188668     0.878247  Biso 1.000000     H
    H   1.0     0.680846     0.187983     0.878183  Biso 1.000000     H
    H   1.0     0.271092     0.206005     0.834297  Biso 1.000000     H
    H   1.0     0.768860     0.205560     0.833969  Biso 1.000000     H
    H   1.0     0.369005     0.101810     0.875830  Biso 1.000000     H
    H   1.0     0.867915     0.102374     0.875515  Biso 1.000000     H
    H   1.0     0.263249     0.057370     0.858192  Biso 1.000000     H
    H   1.0     0.762368     0.057127     0.858314  Biso 1.000000     H
    H   1.0     0.015508     0.847065     0.185885  Biso 1.000000     H
    H   1.0     0.515325     0.847242     0.186132  Biso 1.000000     H
    H   1.0     0.135660     0.832445     0.183671  Biso 1.000000     H
    H   1.0     0.635500     0.832755     0.184061  Biso 1.000000     H
    H   1.0     0.061545     0.744830     0.263066  Biso 1.000000     H
    H   1.0     0.561212     0.744838     0.263303  Biso 1.000000     H
    H   1.0    -0.047733     0.749132     0.235518  Biso 1.000000     H
    H   1.0     0.452036     0.749071     0.235603  Biso 1.000000     H
    H   1.0     0.451758     0.591646     0.226066  Biso 1.000000     H
    H   1.0     0.951823     0.591620     0.226104  Biso 1.000000     H
    H   1.0    -0.029216     0.621407     0.290145  Biso 1.000000     H
    H   1.0     0.470622     0.621287     0.290166  Biso 1.000000     H
    H   1.0     0.135192     0.598645     0.280418  Biso 1.000000     H
    H   1.0     0.635022     0.598630     0.280502  Biso 1.000000     H
    H   1.0     0.199298     0.550060     0.196953  Biso 1.000000     H
    H   1.0     0.699345     0.550284     0.197066  Biso 1.000000     H
    H   1.0     0.089840     0.547756     0.170875  Biso 1.000000     H
    H   1.0     0.589964     0.548054     0.170873  Biso 1.000000     H
    H   1.0     0.170801     0.677908     0.143137  Biso 1.000000     H
    H   1.0     0.670961     0.678351     0.143398  Biso 1.000000     H
    H   1.0     0.192182     0.704978     0.207652  Biso 1.000000     H
    H   1.0     0.692142     0.705169     0.207973  Biso 1.000000     H
    C   1.0     0.067217     0.513325     0.055853  Biso 1.000000     C
    C   1.0     0.566911     0.513333     0.056367  Biso 1.000000     C
    C   1.0     0.073074     0.362076     0.025586  Biso 1.000000     C
    C   1.0     0.572081     0.362347     0.025484  Biso 1.000000     C
    C   1.0     0.032366     0.275596     0.034389  Biso 1.000000     C
    C   1.0     0.531010     0.275967     0.034037  Biso 1.000000     C
    C   1.0     0.046845     0.245831     0.089456  Biso 1.000000     C
    C   1.0     0.545799     0.245528     0.088935  Biso 1.000000     C
    C   1.0     0.505949     0.309839     0.125568  Biso 1.000000     C
    C   1.0     0.000000     0.310369     0.125688  Biso 1.000000     C
    C   1.0     0.045052     0.397112     0.116214  Biso 1.000000     C
    C   1.0     0.545173     0.396482     0.116331  Biso 1.000000     C
    C   1.0     0.009969     0.157236     0.096721  Biso 1.000000     C
    C   1.0     0.508451     0.157070     0.095911  Biso 1.000000     C
    C   1.0     0.320774     0.689333     0.830486  Biso 1.000000     C
    C   1.0     0.818524     0.689524     0.830572  Biso 1.000000     C
    C   1.0     0.265788     0.787116     0.762809  Biso 1.000000     C
    C   1.0     0.763973     0.787236     0.762730  Biso 1.000000     C
    C   1.0     0.251599     0.878178     0.747806  Biso 1.000000     C
    C   1.0     0.749921     0.878310     0.747722  Biso 1.000000     C
    C   1.0     0.340979     0.927716     0.748401  Biso 1.000000     C
    C   1.0     0.839334     0.927820     0.748370  Biso 1.000000     C
    C   1.0     0.383935     0.918622     0.801304  Biso 1.000000     C
    C   1.0     0.882460     0.918525     0.801210  Biso 1.000000     C
    C   1.0     0.396360     0.827891     0.817406  Biso 1.000000     C
    C   1.0     0.894661     0.827756     0.817275  Biso 1.000000     C
    C   1.0     0.323662     0.020813     0.735720  Biso 1.000000     C
    C   1.0     0.821878     0.020944     0.735845  Biso 1.000000     C
    C   1.0     0.182280     0.487346     0.557166  Biso 1.000000     C
    C   1.0     0.682693     0.486704     0.556346  Biso 1.000000     C
    C   1.0     0.178084     0.638258     0.526385  Biso 1.000000     C
    C   1.0     0.677045     0.637461     0.525472  Biso 1.000000     C
    C   1.0     0.219703     0.724443     0.534915  Biso 1.000000     C
    C   1.0     0.717751     0.723973     0.534076  Biso 1.000000     C
    C   1.0     0.205745     0.754788     0.589907  Biso 1.000000     C
    C   1.0     0.702919     0.754240     0.589005  Biso 1.000000     C
    C   1.0     0.245712     0.690257     0.626321  Biso 1.000000     C
    C   1.0     0.743072     0.690149     0.625636  Biso 1.000000     C
    C   1.0     0.205960     0.603828     0.617118  Biso 1.000000     C
    C   1.0     0.704201     0.603411     0.616351  Biso 1.000000     C
    C   1.0     0.243494     0.843091     0.596926  Biso 1.000000     C
    C   1.0     0.739777     0.842848     0.595964  Biso 1.000000     C
    C   1.0     0.430649     0.310764     0.330617  Biso 1.000000     C
    C   1.0     0.930899     0.309658     0.331157  Biso 1.000000     C
    C   1.0     0.485580     0.213203     0.262763  Biso 1.000000     C
    C   1.0     0.985694     0.212048     0.263264  Biso 1.000000     C
    C   1.0     0.499809     0.122179     0.247588  Biso 1.000000     C
    C   1.0     0.999980     0.121009     0.248165  Biso 1.000000     C
    C   1.0     0.410571     0.072390     0.248290  Biso 1.000000     C
    C   1.0     0.910727     0.071250     0.248907  Biso 1.000000     C
    C   1.0     0.367835     0.081460     0.301235  Biso 1.000000     C
    C   1.0     0.868122     0.080239     0.301884  Biso 1.000000     C
    C   1.0     0.355321     0.172136     0.317434  Biso 1.000000     C
    C   1.0     0.855591     0.170951     0.318054  Biso 1.000000     C
    C   1.0     0.428164     0.979276     0.235661  Biso 1.000000     C
    C   1.0     0.928155     0.978222     0.235968  Biso 1.000000     C
    C   1.0     0.431750     0.013284     0.442880  Biso 1.000000     C
    C   1.0     0.933409     0.012962     0.443892  Biso 1.000000     C
    C   1.0     0.427214     0.862675     0.474061  Biso 1.000000     C
    C   1.0     0.927675     0.861628     0.474034  Biso 1.000000     C
    C   1.0     0.468171     0.776292     0.465581  Biso 1.000000     C
    C   1.0     0.969064     0.775415     0.465376  Biso 1.000000     C
    C   1.0     0.453101     0.745652     0.410743  Biso 1.000000     C
    C   1.0     0.955448     0.745470     0.410262  Biso 1.000000     C
    C   1.0    -0.004301     0.810284     0.374102  Biso 1.000000     C
    C   1.0     0.493024     0.809662     0.373972  Biso 1.000000     C
    C   1.0     0.453921     0.896334     0.383085  Biso 1.000000     C
    C   1.0     0.956276     0.896766     0.383525  Biso 1.000000     C
    C   1.0     0.489973     0.657049     0.403967  Biso 1.000000     C
    C   1.0     0.993248     0.657220     0.403122  Biso 1.000000     C
    C   1.0     0.182551     0.189909     0.669473  Biso 1.000000     C
    C   1.0     0.680109     0.189128     0.669335  Biso 1.000000     C
    C   1.0     0.237188     0.288147     0.737068  Biso 1.000000     C
    C   1.0     0.735022     0.286898     0.737144  Biso 1.000000     C
    C   1.0     0.250969     0.379327     0.751995  Biso 1.000000     C
    C   1.0     0.749432     0.377976     0.752150  Biso 1.000000     C
    C   1.0     0.161374     0.428448     0.751314  Biso 1.000000     C
    C   1.0     0.660237     0.427728     0.751365  Biso 1.000000     C
    C   1.0     0.118426     0.418958     0.698444  Biso 1.000000     C
    C   1.0     0.617476     0.418510     0.698417  Biso 1.000000     C
    C   1.0     0.106359     0.328103     0.682474  Biso 1.000000     C
    C   1.0     0.604844     0.327761     0.682353  Biso 1.000000     C
    C   1.0     0.178332     0.521605     0.764007  Biso 1.000000     C
    C   1.0     0.677898     0.520828     0.763985  Biso 1.000000     C
    C   1.0     0.318590     0.986594     0.942890  Biso 1.000000     C
    C   1.0     0.818883     0.987322     0.943015  Biso 1.000000     C
    C   1.0     0.323434     0.137303     0.973948  Biso 1.000000     C
    C   1.0     0.823028     0.138327     0.973628  Biso 1.000000     C
    C   1.0     0.282388     0.223669     0.965525  Biso 1.000000     C
    C   1.0     0.781232     0.224389     0.965119  Biso 1.000000     C
    C   1.0     0.296922     0.254132     0.910626  Biso 1.000000     C
    C   1.0     0.794813     0.254568     0.910073  Biso 1.000000     C
    C   1.0     0.256604     0.190021     0.874010  Biso 1.000000     C
    C   1.0     0.754790     0.189822     0.873763  Biso 1.000000     C
    C   1.0     0.295760     0.103358     0.883068  Biso 1.000000     C
    C   1.0     0.794730     0.103518     0.882966  Biso 1.000000     C
    C   1.0     0.260097     0.342747     0.903812  Biso 1.000000     C
    C   1.0     0.756840     0.342724     0.903027  Biso 1.000000     C
    C   1.0     0.070575     0.810209     0.168929  Biso 1.000000     C
    C   1.0     0.570499     0.810461     0.169229  Biso 1.000000     C
    C   1.0     0.015251     0.712838     0.236772  Biso 1.000000     C
    C   1.0     0.515077     0.712866     0.236913  Biso 1.000000     C
    C   1.0     0.000747     0.621860     0.251932  Biso 1.000000     C
    C   1.0     0.500599     0.621843     0.251959  Biso 1.000000     C
    C   1.0     0.089900     0.572034     0.251350  Biso 1.000000     C
    C   1.0     0.589789     0.572077     0.251384  Biso 1.000000     C
    C   1.0     0.132787     0.580900     0.198428  Biso 1.000000     C
    C   1.0     0.632821     0.581104     0.198514  Biso 1.000000     C
    C   1.0     0.145508     0.671533     0.182184  Biso 1.000000     C
    C   1.0     0.645562     0.671804     0.182413  Biso 1.000000     C
    C   1.0     0.072082     0.479003     0.264078  Biso 1.000000     C
    C   1.0     0.572004     0.479031     0.264046  Biso 1.000000     C
    N   1.0     0.032499     0.425080     0.061933  Biso 1.000000     N
    N   1.0     0.532106     0.425072     0.062221  Biso 1.000000     N
    N   1.0     0.308469     0.779463     0.814724  Biso 1.000000     N
    N   1.0     0.806587     0.779610     0.814660  Biso 1.000000     N
    N   1.0     0.218059     0.575265     0.562936  Biso 1.000000     N
    N   1.0     0.717306     0.574946     0.562214  Biso 1.000000     N
    N   1.0     0.443127     0.220686     0.314746  Biso 1.000000     N
    N   1.0     0.943342     0.219576     0.315272  Biso 1.000000     N
    N   1.0     0.467000     0.925221     0.437148  Biso 1.000000     N
    N   1.0     0.968333     0.924808     0.437836  Biso 1.000000     N
    N   1.0     0.194486     0.280127     0.685175  Biso 1.000000     N
    N   1.0     0.692601     0.279239     0.685153  Biso 1.000000     N
    N   1.0     0.283270     0.074636     0.937193  Biso 1.000000     N
    N   1.0     0.782933     0.075125     0.937196  Biso 1.000000     N
    N   1.0     0.057830     0.720187     0.184816  Biso 1.000000     N
    N   1.0     0.557832     0.720389     0.185022  Biso 1.000000     N
    O   1.0     0.476039     0.520206     0.967322  Biso 1.000000     O
    O   1.0     0.975844     0.520007     0.966956  Biso 1.000000     O
    O   1.0     0.063310     0.652130    -0.002070  Biso 1.000000     O
    O   1.0     0.563655     0.652196    -0.001663  Biso 1.000000     O
    O   1.0     0.148127     0.521767     0.965168  Biso 1.000000     O
    O   1.0     0.648135     0.521361     0.965873  Biso 1.000000     O
    O   1.0     0.434271     0.146075     0.120167  Biso 1.000000     O
    O   1.0     0.937178     0.146031     0.122245  Biso 1.000000     O
    O   1.0     0.054976     0.097401     0.077551  Biso 1.000000     O
    O   1.0     0.554667     0.097093     0.077774  Biso 1.000000     O
    O   1.0     0.300517     0.583495     0.906459  Biso 1.000000     O
    O   1.0     0.797864     0.583899     0.906487  Biso 1.000000     O
    O   1.0     0.402334     0.711420     0.922485  Biso 1.000000     O
    O   1.0     0.899927     0.711586     0.922581  Biso 1.000000     O
    O   1.0     0.229707     0.732131     0.913040  Biso 1.000000     O
    O   1.0     0.727243     0.732483     0.913159  Biso 1.000000     O
    O   1.0     0.347308     0.048457     0.691043  Biso 1.000000     O
    O   1.0     0.843815     0.048524     0.690908  Biso 1.000000     O
    O   1.0     0.289056     0.066316     0.768827  Biso 1.000000     O
    O   1.0     0.788464     0.066620     0.769229  Biso 1.000000     O
    O   1.0     0.274413     0.479885     0.468806  Biso 1.000000     O
    O   1.0     0.774085     0.479335     0.467439  Biso 1.000000     O
    O   1.0     0.186807     0.347964     0.499743  Biso 1.000000     O
    O   1.0     0.687353     0.347351     0.499565  Biso 1.000000     O
    O   1.0     0.102262     0.478242     0.466213  Biso 1.000000     O
    O   1.0     0.601879     0.476430     0.465526  Biso 1.000000     O
    O   1.0     0.316584     0.854058     0.622222  Biso 1.000000     O
    O   1.0     0.811909     0.854352     0.622119  Biso 1.000000     O
    O   1.0     0.198731     0.903059     0.577732  Biso 1.000000     O
    O   1.0     0.695367     0.902132     0.575848  Biso 1.000000     O
    O   1.0     0.449431     0.416969     0.406477  Biso 1.000000     O
    O   1.0     0.952368     0.415899     0.406687  Biso 1.000000     O
    O   1.0     0.349189     0.288234     0.422603  Biso 1.000000     O
    O   1.0     0.850861     0.288341     0.423794  Biso 1.000000     O
    O   1.0     0.023279     0.267346     0.413459  Biso 1.000000     O
    O   1.0     0.522330     0.269292     0.413286  Biso 1.000000     O
    O   1.0     0.406288     0.951731     0.190686  Biso 1.000000     O
    O   1.0     0.906324     0.951366     0.190834  Biso 1.000000     O
    O   1.0     0.461456     0.933566     0.269065  Biso 1.000000     O
    O   1.0     0.961244     0.931967     0.269171  Biso 1.000000     O
    O   1.0     0.024203     0.019353     0.532966  Biso 1.000000     O
    O   1.0     0.524299     0.020531     0.531165  Biso 1.000000     O
    O   1.0     0.437165     0.152726     0.500134  Biso 1.000000     O
    O   1.0     0.937299     0.151743     0.502016  Biso 1.000000     O
    O   1.0     0.352190     0.023141     0.533977  Biso 1.000000     O
    O   1.0     0.851921     0.021376     0.534419  Biso 1.000000     O
    O   1.0     0.066317     0.646426     0.377822  Biso 1.000000     O
    O   1.0     0.562149     0.645481     0.377894  Biso 1.000000     O
    O   1.0     0.445583     0.597857     0.424216  Biso 1.000000     O
    O   1.0     0.948592     0.597061     0.422259  Biso 1.000000     O
    O   1.0     0.202528     0.083873     0.593680  Biso 1.000000     O
    O   1.0     0.699554     0.083102     0.593391  Biso 1.000000     O
    O   1.0     0.100700     0.211535     0.577518  Biso 1.000000     O
    O   1.0     0.598932     0.211559     0.577231  Biso 1.000000     O
    O   1.0     0.273384     0.232475     0.586732  Biso 1.000000     O
    O   1.0     0.771889     0.231135     0.586892  Biso 1.000000     O
    O   1.0     0.156223     0.548735     0.809015  Biso 1.000000     O
    O   1.0     0.655972     0.548413     0.808931  Biso 1.000000     O
    O   1.0     0.211572     0.567681     0.730765  Biso 1.000000     O
    O   1.0     0.711523     0.566505     0.730665  Biso 1.000000     O
    O   1.0     0.226408     0.979412     0.031200  Biso 1.000000     O
    O   1.0     0.726489     0.979645     0.031231  Biso 1.000000     O
    O   1.0     0.313549     0.847214     0.000000  Biso 1.000000     O
    O   1.0     0.814764     0.848057     0.000000  Biso 1.000000     O
    O   1.0     0.398680     0.976702     0.033878  Biso 1.000000     O
    O   1.0     0.898714     0.978587     0.034084  Biso 1.000000     O
    O   1.0     0.187891     0.354311     0.877758  Biso 1.000000     O
    O   1.0     0.683717     0.353443     0.877741  Biso 1.000000     O
    O   1.0     0.304650     0.401990     0.923950  Biso 1.000000     O
    O   1.0     0.801488     0.402903     0.922173  Biso 1.000000     O
    O   1.0     0.050438     0.916272     0.093284  Biso 1.000000     O
    O   1.0     0.550507     0.916322     0.093391  Biso 1.000000     O
    O   1.0     0.151859     0.788515     0.076615  Biso 1.000000     O
    O   1.0     0.652392     0.788591     0.077262  Biso 1.000000     O
    O   1.0     0.479777     0.767533     0.086523  Biso 1.000000     O
    O   1.0     0.979296     0.767610     0.086383  Biso 1.000000     O
    O   1.0     0.093911     0.451566     0.309069  Biso 1.000000     O
    O   1.0     0.593824     0.451594     0.309042  Biso 1.000000     O
    O   1.0     0.038425     0.433266     0.230764  Biso 1.000000     O
    O   1.0     0.538470     0.433282     0.230702  Biso 1.000000     O
    P   1.0     0.061126     0.556341     0.990758  Biso 1.000000     P
    P   1.0     0.561236     0.556434     0.991296  Biso 1.000000     P
    P   1.0     0.313826     0.679499     0.900107  Biso 1.000000     P
    P   1.0     0.811367     0.679846     0.900180  Biso 1.000000     P
    P   1.0     0.188843     0.443683     0.492263  Biso 1.000000     P
    P   1.0     0.689052     0.442935     0.491471  Biso 1.000000     P
    P   1.0     0.437452     0.320795     0.400251  Biso 1.000000     P
    P   1.0     0.938949     0.319843     0.400746  Biso 1.000000     P
    P   1.0     0.438871     0.057045     0.507743  Biso 1.000000     P
    P   1.0     0.939176     0.055940     0.509041  Biso 1.000000     P
    P   1.0     0.189296     0.179883     0.599864  Biso 1.000000     P
    P   1.0     0.687126     0.179193     0.599716  Biso 1.000000     P
    P   1.0     0.311795     0.942886     0.007753  Biso 1.000000     P
    P   1.0     0.812287     0.943737     0.007913  Biso 1.000000     P
    P   1.0     0.063533     0.820171     0.099300  Biso 1.000000     P
    P   1.0     0.563786     0.820315     0.099596  Biso 1.000000     P
   Cl   1.0     0.318079     0.417663     0.057119  Biso 1.000000    Cl
   Cl   1.0     0.818546     0.416621     0.056044  Biso 1.000000    Cl
   Cl   1.0     0.306067     0.647529     0.041603  Biso 1.000000    Cl
   Cl   1.0     0.806099     0.647220     0.041544  Biso 1.000000    Cl
   Cl   1.0     0.432477     0.582615     0.557434  Biso 1.000000    Cl
   Cl   1.0     0.931275     0.583457     0.556152  Biso 1.000000    Cl
   Cl   1.0     0.444966     0.352584     0.541945  Biso 1.000000    Cl
   Cl   1.0     0.945016     0.352919     0.542106  Biso 1.000000    Cl
   Cl   1.0     0.182113     0.916825     0.443928  Biso 1.000000    Cl
   Cl   1.0     0.681551     0.917366     0.442424  Biso 1.000000    Cl
   Cl   1.0     0.194480     0.147071     0.458514  Biso 1.000000    Cl
   Cl   1.0     0.695060     0.147597     0.458069  Biso 1.000000    Cl
   Cl   1.0     0.068874     0.083375     0.943320  Biso 1.000000    Cl
   Cl   1.0     0.568484     0.083493     0.943495  Biso 1.000000    Cl
   Cl   1.0     0.055932     0.852770     0.957818  Biso 1.000000    Cl
   Cl   1.0     0.556117     0.852971     0.958182  Biso 1.000000    Cl
   Cd   1.0     0.325370     0.516537     0.981833  Biso 1.000000    Cd
   Cd   1.0     0.824921     0.516397     0.981259  Biso 1.000000    Cd
   Cd   1.0     0.186227     0.751727     0.995593  Biso 1.000000    Cd
   Cd   1.0     0.686514     0.752196     0.996144  Biso 1.000000    Cd
   Cd   1.0     0.179014     0.499096     0.884838  Biso 1.000000    Cd
   Cd   1.0     0.676663     0.498986     0.885065  Biso 1.000000    Cd
   Cd   1.0     0.425345     0.483388     0.482226  Biso 1.000000    Cd
   Cd   1.0     0.925076     0.483393     0.481474  Biso 1.000000    Cd
   Cd   1.0     0.064516     0.247989     0.496656  Biso 1.000000    Cd
   Cd   1.0     0.564516     0.248254     0.496076  Biso 1.000000    Cd
   Cd   1.0     0.073483     0.500864     0.385342  Biso 1.000000    Cd
   Cd   1.0     0.571394     0.500738     0.385159  Biso 1.000000    Cd
   Cd   1.0     0.175199     0.016490     0.518853  Biso 1.000000    Cd
   Cd   1.0     0.675245     0.016414     0.517696  Biso 1.000000    Cd
   Cd   1.0     0.314398     0.252150     0.503690  Biso 1.000000    Cd
   Cd   1.0     0.814733     0.251526     0.504411  Biso 1.000000    Cd
   Cd   1.0     0.324300    -0.000399     0.614810  Biso 1.000000    Cd
   Cd   1.0     0.821193    -0.000905     0.614932  Biso 1.000000    Cd
   Cd   1.0     0.075392     0.983637     0.018096  Biso 1.000000    Cd
   Cd   1.0     0.575549     0.983729     0.018245  Biso 1.000000    Cd
   Cd   1.0     0.436622     0.748149     0.003600  Biso 1.000000    Cd
   Cd   1.0     0.936417     0.748037     0.003428  Biso 1.000000    Cd
   Cd   1.0     0.428314     0.000000     0.114456  Biso 1.000000    Cd
   Cd   1.0     0.929070     0.000000     0.114824  Biso 1.000000    Cd
