#======================================================================

# CRYSTAL DATA

#----------------------------------------------------------------------

data_VESTA_phase_1


_pd_phase_name                         MOF
_cell_length_a                         20.58300
_cell_length_b                         17.42700
_cell_length_c                         18.61300
_cell_angle_alpha                      117.84700
_cell_angle_beta                       90.00100
_cell_angle_gamma                      90.00000
_symmetry_space_group_name_H-M         "P 1"
_symmetry_Int_Tables_number            1

loop_
_symmetry_equiv_pos_as_xyz
   "x, y, z"

loop_
   _atom_site_label
   _atom_site_occupancy
   _atom_site_fract_x
   _atom_site_fract_y
   _atom_site_fract_z
   _atom_site_adp_type
   _atom_site_B_iso_or_equiv
   _atom_site_type_symbol
    H   1.0     0.274919     0.158908     0.998822  Biso 1.000000     H
    H   1.0     0.774927     0.158908     0.998821  Biso 1.000000     H
    H   1.0     0.024918     0.841073     0.001181  Biso 1.000000     H
    H   1.0     0.524926     0.841073     0.001182  Biso 1.000000     H
    H   1.0     0.456519     0.252158     0.653256  Biso 1.000000     H
    H   1.0     0.956526     0.252158     0.653256  Biso 1.000000     H
    H   1.0     0.507789     0.218075     0.709958  Biso 1.000000     H
    H   1.0     0.000000     0.218075     0.709959  Biso 1.000000     H
    H   1.0     0.092129     0.323404     0.722051  Biso 1.000000     H
    H   1.0     0.592139     0.323405     0.722051  Biso 1.000000     H
    H   1.0     0.053700     0.345787     0.649153  Biso 1.000000     H
    H   1.0     0.553707     0.345788     0.649151  Biso 1.000000     H
    H   1.0    -0.006375     0.392308     0.815280  Biso 1.000000     H
    H   1.0     0.493634     0.392309     0.815282  Biso 1.000000     H
    H   1.0     0.462098     0.416388     0.739652  Biso 1.000000     H
    H   1.0     0.962107     0.416386     0.739651  Biso 1.000000     H
    H   1.0     0.093092     0.479799     0.827207  Biso 1.000000     H
    H   1.0     0.593100     0.479801     0.827209  Biso 1.000000     H
    H   1.0     0.064531     0.503416     0.751149  Biso 1.000000     H
    H   1.0     0.564539     0.503419     0.751150  Biso 1.000000     H
    H   1.0     0.492166     0.552968     0.911989  Biso 1.000000     H
    H   1.0     0.992174     0.552967     0.911988  Biso 1.000000     H
    H   1.0     0.548557     0.622319     0.900826  Biso 1.000000     H
    H   1.0     0.000000     0.622317     0.900825  Biso 1.000000     H
    H   1.0     0.431028     0.656449     0.888962  Biso 1.000000     H
    H   1.0     0.931038     0.656449     0.888962  Biso 1.000000     H
    H   1.0     0.424714     0.557715     0.796607  Biso 1.000000     H
    H   1.0     0.924722     0.557714     0.796608  Biso 1.000000     H
    H   1.0     0.017101     0.117271     0.570997  Biso 1.000000     H
    H   1.0     0.517110     0.117272     0.570996  Biso 1.000000     H
    H   1.0     0.029657     0.197569     0.544985  Biso 1.000000     H
    H   1.0     0.529665     0.197569     0.544986  Biso 1.000000     H
    H   1.0     0.086758     0.172855     0.594727  Biso 1.000000     H
    H   1.0     0.586765     0.172855     0.594726  Biso 1.000000     H
    H   1.0     0.501365     0.611124     0.734292  Biso 1.000000     H
    H   1.0     0.000000     0.611121     0.734289  Biso 1.000000     H
    H   1.0     0.442856     0.685908     0.781384  Biso 1.000000     H
    H   1.0     0.942865     0.685907     0.781383  Biso 1.000000     H
    H   1.0     0.018270     0.697842     0.824935  Biso 1.000000     H
    H   1.0     0.518276     0.697845     0.824938  Biso 1.000000     H
    H   1.0     0.206504     0.747830     0.346738  Biso 1.000000     H
    H   1.0     0.706512     0.747829     0.346738  Biso 1.000000     H
    H   1.0     0.257773     0.781914     0.290038  Biso 1.000000     H
    H   1.0     0.757780     0.781914     0.290038  Biso 1.000000     H
    H   1.0     0.342116     0.676574     0.277932  Biso 1.000000     H
    H   1.0     0.842124     0.676574     0.277932  Biso 1.000000     H
    H   1.0     0.303691     0.654190     0.350831  Biso 1.000000     H
    H   1.0     0.803699     0.654189     0.350831  Biso 1.000000     H
    H   1.0     0.243600     0.607682     0.184712  Biso 1.000000     H
    H   1.0     0.743609     0.607682     0.184711  Biso 1.000000     H
    H   1.0     0.212075     0.583598     0.260339  Biso 1.000000     H
    H   1.0     0.712083     0.583597     0.260339  Biso 1.000000     H
    H   1.0     0.343066     0.520186     0.172763  Biso 1.000000     H
    H   1.0     0.843074     0.520186     0.172763  Biso 1.000000     H
    H   1.0     0.314520     0.496567     0.248825  Biso 1.000000     H
    H   1.0     0.814528     0.496567     0.248826  Biso 1.000000     H
    H   1.0     0.242121     0.447021     0.088000  Biso 1.000000     H
    H   1.0     0.742130     0.447020     0.088000  Biso 1.000000     H
    H   1.0     0.298520     0.377668     0.099150  Biso 1.000000     H
    H   1.0     0.798529     0.377668     0.099151  Biso 1.000000     H
    H   1.0     0.180997     0.343535     0.111033  Biso 1.000000     H
    H   1.0     0.681006     0.343534     0.111033  Biso 1.000000     H
    H   1.0     0.174689     0.442269     0.203388  Biso 1.000000     H
    H   1.0     0.674698     0.442268     0.203388  Biso 1.000000     H
    H   1.0     0.267105     0.882707     0.429001  Biso 1.000000     H
    H   1.0     0.767113     0.882707     0.429001  Biso 1.000000     H
    H   1.0     0.279659     0.802403     0.455005  Biso 1.000000     H
    H   1.0     0.779666     0.802403     0.455004  Biso 1.000000     H
    H   1.0     0.336758     0.827117     0.405264  Biso 1.000000     H
    H   1.0     0.836765     0.827117     0.405264  Biso 1.000000     H
    H   1.0     0.251348     0.388862     0.265698  Biso 1.000000     H
    H   1.0     0.751356     0.388861     0.265698  Biso 1.000000     H
    H   1.0     0.192842     0.314072     0.218603  Biso 1.000000     H
    H   1.0     0.692850     0.314071     0.218602  Biso 1.000000     H
    H   1.0     0.268260     0.302145     0.175049  Biso 1.000000     H
    H   1.0     0.768268     0.302144     0.175049  Biso 1.000000     H
    H   1.0     0.206240     0.402023     0.653130  Biso 1.000000     H
    H   1.0     0.706248     0.402025     0.653130  Biso 1.000000     H
    H   1.0     0.258413     0.491705     0.709566  Biso 1.000000     H
    H   1.0     0.758421     0.491706     0.709566  Biso 1.000000     H
    H   1.0     0.341134     0.396882     0.722517  Biso 1.000000     H
    H   1.0     0.841141     0.396882     0.722518  Biso 1.000000     H
    H   1.0     0.301423     0.302330     0.650462  Biso 1.000000     H
    H   1.0     0.801429     0.302330     0.650463  Biso 1.000000     H
    H   1.0     0.241452     0.425442     0.815568  Biso 1.000000     H
    H   1.0     0.741458     0.425443     0.815569  Biso 1.000000     H
    H   1.0     0.209547     0.325527     0.741112  Biso 1.000000     H
    H   1.0     0.709553     0.325528     0.741113  Biso 1.000000     H
    H   1.0     0.338752     0.350809     0.832590  Biso 1.000000     H
    H   1.0     0.838757     0.350810     0.832592  Biso 1.000000     H
    H   1.0     0.311918     0.250589     0.755819  Biso 1.000000     H
    H   1.0     0.811924     0.250590     0.755821  Biso 1.000000     H
    H   1.0     0.234253     0.361218     0.912307  Biso 1.000000     H
    H   1.0     0.734257     0.361219     0.912307  Biso 1.000000     H
    H   1.0     0.291255     0.283220     0.905849  Biso 1.000000     H
    H   1.0     0.791259     0.283222     0.905851  Biso 1.000000     H
    H   1.0     0.174789     0.232514     0.887225  Biso 1.000000     H
    H   1.0     0.674794     0.232514     0.887224  Biso 1.000000     H
    H   1.0     0.171554     0.237904     0.794122  Biso 1.000000     H
    H   1.0     0.671560     0.237903     0.794121  Biso 1.000000     H
    H   1.0     0.268132     0.452494     0.570362  Biso 1.000000     H
    H   1.0     0.768140     0.452494     0.570362  Biso 1.000000     H
    H   1.0     0.279807     0.346287     0.545120  Biso 1.000000     H
    H   1.0     0.779814     0.346287     0.545121  Biso 1.000000     H
    H   1.0     0.337299     0.420095     0.594612  Biso 1.000000     H
    H   1.0     0.837307     0.420095     0.594612  Biso 1.000000     H
    H   1.0     0.251044     0.125470     0.737333  Biso 1.000000     H
    H   1.0     0.751052     0.125471     0.737335  Biso 1.000000     H
    H   1.0     0.191265     0.095929     0.781599  Biso 1.000000     H
    H   1.0     0.691272     0.095930     0.781600  Biso 1.000000     H
    H   1.0     0.264810     0.130791     0.829377  Biso 1.000000     H
    H   1.0     0.764816     0.130793     0.829381  Biso 1.000000     H
    H   1.0     0.456234     0.597907     0.346849  Biso 1.000000     H
    H   1.0     0.956241     0.597912     0.346851  Biso 1.000000     H
    H   1.0     0.508423     0.508246     0.290420  Biso 1.000000     H
    H   1.0     0.000000     0.508247     0.290420  Biso 1.000000     H
    H   1.0     0.091107     0.603096     0.277461  Biso 1.000000     H
    H   1.0     0.591115     0.603098     0.277459  Biso 1.000000     H
    H   1.0     0.051379     0.697637     0.349506  Biso 1.000000     H
    H   1.0     0.551384     0.697638     0.349505  Biso 1.000000     H
    H   1.0    -0.008590     0.574474     0.184411  Biso 1.000000     H
    H   1.0     0.491414     0.574472     0.184410  Biso 1.000000     H
    H   1.0     0.459502     0.674390     0.258851  Biso 1.000000     H
    H   1.0     0.959512     0.674390     0.258851  Biso 1.000000     H
    H   1.0     0.088680     0.649110     0.167336  Biso 1.000000     H
    H   1.0     0.588683     0.649105     0.167331  Biso 1.000000     H
    H   1.0     0.061856     0.749335     0.244107  Biso 1.000000     H
    H   1.0     0.561863     0.749332     0.244103  Biso 1.000000     H
    H   1.0     0.484133     0.638683     0.087673  Biso 1.000000     H
    H   1.0     0.984147     0.638685     0.087674  Biso 1.000000     H
    H   1.0     0.541139     0.716644     0.094055  Biso 1.000000     H
    H   1.0     0.000000     0.716647     0.094059  Biso 1.000000     H
    H   1.0     0.424680     0.767400     0.112764  Biso 1.000000     H
    H   1.0     0.924694     0.767401     0.112762  Biso 1.000000     H
    H   1.0     0.421507     0.762062     0.205894  Biso 1.000000     H
    H   1.0     0.921516     0.762061     0.205890  Biso 1.000000     H
    H   1.0     0.018135     0.547478     0.429628  Biso 1.000000     H
    H   1.0     0.518145     0.547479     0.429629  Biso 1.000000     H
    H   1.0     0.029800     0.653684     0.454860  Biso 1.000000     H
    H   1.0     0.529808     0.653685     0.454858  Biso 1.000000     H
    H   1.0     0.087296     0.579882     0.405372  Biso 1.000000     H
    H   1.0     0.587305     0.579885     0.405373  Biso 1.000000     H
    H   1.0     0.501056     0.874442     0.262546  Biso 1.000000     H
    H   1.0     0.000000     0.874443     0.262551  Biso 1.000000     H
    H   1.0     0.441225     0.904003     0.218354  Biso 1.000000     H
    H   1.0     0.941234     0.904003     0.218355  Biso 1.000000     H
    H   1.0     0.014717     0.869093     0.170474  Biso 1.000000     H
    H   1.0     0.514720     0.869089     0.170468  Biso 1.000000     H
    C   1.0     0.007299     0.245184     0.667309  Biso 1.000000     C
    C   1.0     0.507307     0.245188     0.667311  Biso 1.000000     C
    C   1.0     0.044234     0.330599     0.699225  Biso 1.000000     C
    C   1.0     0.544244     0.330602     0.699225  Biso 1.000000     C
    C   1.0     0.007663     0.407187     0.765848  Biso 1.000000     C
    C   1.0     0.507670     0.407186     0.765848  Biso 1.000000     C
    C   1.0     0.048188     0.490618     0.800919  Biso 1.000000     C
    C   1.0     0.548196     0.490615     0.800918  Biso 1.000000     C
    C   1.0     0.513321     0.570105     0.866920  Biso 1.000000     C
    C   1.0     0.000000     0.570107     0.866921  Biso 1.000000     C
    C   1.0     0.458635     0.607542     0.837613  Biso 1.000000     C
    C   1.0     0.958642     0.607543     0.837610  Biso 1.000000     C
    C   1.0     0.257292     0.754799     0.332684  Biso 1.000000     C
    C   1.0     0.757300     0.754799     0.332684  Biso 1.000000     C
    C   1.0     0.294222     0.669380     0.300761  Biso 1.000000     C
    C   1.0     0.794230     0.669380     0.300761  Biso 1.000000     C
    C   1.0     0.257644     0.592799     0.234139  Biso 1.000000     C
    C   1.0     0.757652     0.592798     0.234139  Biso 1.000000     C
    C   1.0     0.298167     0.509367     0.199059  Biso 1.000000     C
    C   1.0     0.798175     0.509367     0.199059  Biso 1.000000     C
    C   1.0     0.263285     0.429879     0.133062  Biso 1.000000     C
    C   1.0     0.763293     0.429879     0.133062  Biso 1.000000     C
    C   1.0     0.208607     0.392441     0.162380  Biso 1.000000     C
    C   1.0     0.708616     0.392441     0.162380  Biso 1.000000     C
    C   1.0     0.257223     0.421954     0.667286  Biso 1.000000     C
    C   1.0     0.757231     0.421954     0.667286  Biso 1.000000     C
    C   1.0     0.292865     0.368120     0.699960  Biso 1.000000     C
    C   1.0     0.792872     0.368120     0.699961  Biso 1.000000     C
    C   1.0     0.255259     0.360486     0.767240  Biso 1.000000     C
    C   1.0     0.755266     0.360487     0.767240  Biso 1.000000     C
    C   1.0     0.294461     0.313110     0.804513  Biso 1.000000     C
    C   1.0     0.794467     0.313112     0.804514  Biso 1.000000     C
    C   1.0     0.257339     0.299625     0.869239  Biso 1.000000     C
    C   1.0     0.757344     0.299627     0.869240  Biso 1.000000     C
    C   1.0     0.204135     0.230894     0.837384  Biso 1.000000     C
    C   1.0     0.704141     0.230895     0.837384  Biso 1.000000     C
    C   1.0     0.007211     0.578000     0.332696  Biso 1.000000     C
    C   1.0     0.507220     0.577998     0.332694  Biso 1.000000     C
    C   1.0     0.042833     0.631840     0.300014  Biso 1.000000     C
    C   1.0     0.542841     0.631841     0.300013  Biso 1.000000     C
    C   1.0     0.005212     0.639441     0.232726  Biso 1.000000     C
    C   1.0     0.505217     0.639439     0.232725  Biso 1.000000     C
    C   1.0     0.044393     0.686807     0.195427  Biso 1.000000     C
    C   1.0     0.544398     0.686804     0.195424  Biso 1.000000     C
    C   1.0     0.507244     0.700272     0.130706  Biso 1.000000     C
    C   1.0     0.000000     0.700275     0.130708  Biso 1.000000     C
    C   1.0     0.454060     0.769029     0.162585  Biso 1.000000     C
    C   1.0     0.954071     0.769031     0.162585  Biso 1.000000     C
    N   1.0     0.037043     0.178683     0.589648  Biso 1.000000     N
    N   1.0     0.537050     0.178685     0.589650  Biso 1.000000     N
    N   1.0     0.483096     0.653215     0.791745  Biso 1.000000     N
    N   1.0     0.983106     0.653214     0.791742  Biso 1.000000     N
    N   1.0     0.287043     0.821293     0.410345  Biso 1.000000     N
    N   1.0     0.787050     0.821293     0.410345  Biso 1.000000     N
    N   1.0     0.233079     0.346770     0.208244  Biso 1.000000     N
    N   1.0     0.733088     0.346769     0.208244  Biso 1.000000     N
    N   1.0     0.287493     0.409841     0.589509  Biso 1.000000     N
    N   1.0     0.787500     0.409841     0.589510  Biso 1.000000     N
    N   1.0     0.230844     0.140451     0.793708  Biso 1.000000     N
    N   1.0     0.730850     0.140452     0.793710  Biso 1.000000     N
    N   1.0     0.037489     0.590129     0.410475  Biso 1.000000     N
    N   1.0     0.537497     0.590129     0.410474  Biso 1.000000     N
    N   1.0     0.480798     0.859461     0.206202  Biso 1.000000     N
    N   1.0     0.980808     0.859463     0.206205  Biso 1.000000     N
    O   1.0     0.353024     0.986213     0.514886  Biso 1.000000     O
    O   1.0     0.853032     0.986213     0.514887  Biso 1.000000     O
    O   1.0     0.436171     0.847227     0.443301  Biso 1.000000     O
    O   1.0     0.936179     0.847227     0.443301  Biso 1.000000     O
    O   1.0     0.147605     0.744517     0.485784  Biso 1.000000     O
    O   1.0     0.647613     0.744518     0.485784  Biso 1.000000     O
    O   1.0     0.012464     0.943458     0.382672  Biso 1.000000     O
    O   1.0     0.512472     0.943458     0.382671  Biso 1.000000     O
    O   1.0     0.380715     0.925687     0.353659  Biso 1.000000     O
    O   1.0     0.880723     0.925687     0.353659  Biso 1.000000     O
    O   1.0     0.016314     0.783908     0.507906  Biso 1.000000     O
    O   1.0     0.516322     0.783908     0.507905  Biso 1.000000     O
    O   1.0     0.089126     0.849220     0.416078  Biso 1.000000     O
    O   1.0     0.589133     0.849220     0.416078  Biso 1.000000     O
    O   1.0     0.330451     0.074088     0.376768  Biso 1.000000     O
    O   1.0     0.830458     0.074088     0.376768  Biso 1.000000     O
    O   1.0     0.023933     0.957691     0.789941  Biso 1.000000     O
    O   1.0     0.523941     0.957690     0.789941  Biso 1.000000     O
    O   1.0     0.375472     0.079372     0.667990  Biso 1.000000     O
    O   1.0     0.875480     0.079372     0.667991  Biso 1.000000     O
    O   1.0     0.414169     0.003316     0.761843  Biso 1.000000     O
    O   1.0     0.914177     0.003316     0.761843  Biso 1.000000     O
    O   1.0     0.446617     0.044636     0.907785  Biso 1.000000     O
    O   1.0     0.946625     0.044636     0.907785  Biso 1.000000     O
    O   1.0     0.128728     0.034377     0.758150  Biso 1.000000     O
    O   1.0     0.628736     0.034376     0.758150  Biso 1.000000     O
    O   1.0     0.174876     0.916534     0.799967  Biso 1.000000     O
    O   1.0     0.674884     0.916534     0.799967  Biso 1.000000     O
    O   1.0     0.022924     0.068137     0.707054  Biso 1.000000     O
    O   1.0     0.522932     0.068137     0.707054  Biso 1.000000     O
    O   1.0     0.427777     0.887847     0.596923  Biso 1.000000     O
    O   1.0     0.927785     0.887848     0.596923  Biso 1.000000     O
    O   1.0     0.443382     0.956205     0.000866  Biso 1.000000     O
    O   1.0     0.943389     0.956205     0.000866  Biso 1.000000     O
    O   1.0     0.127593     0.109148     0.922939  Biso 1.000000     O
    O   1.0     0.627601     0.109148     0.922939  Biso 1.000000     O
    O   1.0     0.228685     0.182691     0.997081  Biso 1.000000     O
    O   1.0     0.728693     0.182691     0.997080  Biso 1.000000     O
    O   1.0     0.103020     0.013753     0.485093  Biso 1.000000     O
    O   1.0     0.603028     0.013753     0.485092  Biso 1.000000     O
    O   1.0     0.186170     0.152743     0.556685  Biso 1.000000     O
    O   1.0     0.686178     0.152743     0.556685  Biso 1.000000     O
    O   1.0     0.397611     0.255451     0.514204  Biso 1.000000     O
    O   1.0     0.897618     0.255451     0.514204  Biso 1.000000     O
    O   1.0     0.262474     0.056506     0.617306  Biso 1.000000     O
    O   1.0     0.762481     0.056506     0.617306  Biso 1.000000     O
    O   1.0     0.130716     0.074280     0.646325  Biso 1.000000     O
    O   1.0     0.630724     0.074280     0.646325  Biso 1.000000     O
    O   1.0     0.266320     0.216057     0.492077  Biso 1.000000     O
    O   1.0     0.766328     0.216057     0.492077  Biso 1.000000     O
    O   1.0     0.339133     0.150747     0.583905  Biso 1.000000     O
    O   1.0     0.839140     0.150747     0.583905  Biso 1.000000     O
    O   1.0     0.080445     0.925879     0.623216  Biso 1.000000     O
    O   1.0     0.580452     0.925879     0.623215  Biso 1.000000     O
    O   1.0     0.273937     0.042288     0.210052  Biso 1.000000     O
    O   1.0     0.773945     0.042288     0.210052  Biso 1.000000     O
    O   1.0     0.125463     0.920592     0.331990  Biso 1.000000     O
    O   1.0     0.625471     0.920592     0.331990  Biso 1.000000     O
    O   1.0     0.164161     0.996658     0.238143  Biso 1.000000     O
    O   1.0     0.664169     0.996658     0.238143  Biso 1.000000     O
    O   1.0     0.196612     0.955340     0.092205  Biso 1.000000     O
    O   1.0     0.696620     0.955340     0.092205  Biso 1.000000     O
    O   1.0     0.378719     0.965585     0.241832  Biso 1.000000     O
    O   1.0     0.878728     0.965585     0.241832  Biso 1.000000     O
    O   1.0     0.424882     0.083428     0.200020  Biso 1.000000     O
    O   1.0     0.924890     0.083428     0.200021  Biso 1.000000     O
    O   1.0     0.272920     0.931830     0.292934  Biso 1.000000     O
    O   1.0     0.772928     0.931830     0.292933  Biso 1.000000     O
    O   1.0     0.177773     0.112117     0.403062  Biso 1.000000     O
    O   1.0     0.677781     0.112117     0.403062  Biso 1.000000     O
    O   1.0     0.193378     0.043775    -0.000865  Biso 1.000000     O
    O   1.0     0.693386     0.043775    -0.000865  Biso 1.000000     O
    O   1.0     0.377586     0.890824     0.077044  Biso 1.000000     O
    O   1.0     0.877594     0.890824     0.077044  Biso 1.000000     O
    O   1.0     0.478691     0.817302     0.002947  Biso 1.000000     O
    O   1.0     0.978699     0.817301     0.002946  Biso 1.000000     O
    O   1.0     0.103003     0.528653     0.514774  Biso 1.000000     O
    O   1.0     0.603011     0.528653     0.514774  Biso 1.000000     O
    O   1.0     0.186203     0.595944     0.443122  Biso 1.000000     O
    O   1.0     0.686211     0.595944     0.443122  Biso 1.000000     O
    O   1.0     0.397707     0.740911     0.485860  Biso 1.000000     O
    O   1.0     0.897714     0.740912     0.485860  Biso 1.000000     O
    O   1.0     0.262608     0.439364     0.382703  Biso 1.000000     O
    O   1.0     0.762616     0.439364     0.382703  Biso 1.000000     O
    O   1.0     0.130933     0.428105     0.353299  Biso 1.000000     O
    O   1.0     0.630941     0.428104     0.353299  Biso 1.000000     O
    O   1.0     0.266312     0.723755     0.507962  Biso 1.000000     O
    O   1.0     0.766319     0.723755     0.507962  Biso 1.000000     O
    O   1.0     0.339147     0.566986     0.416167  Biso 1.000000     O
    O   1.0     0.839154     0.566986     0.416168  Biso 1.000000     O
    O   1.0     0.080549     0.303011     0.376555  Biso 1.000000     O
    O   1.0     0.580557     0.303011     0.376555  Biso 1.000000     O
    O   1.0     0.274072     0.832150     0.790462  Biso 1.000000     O
    O   1.0     0.774080     0.832150     0.790462  Biso 1.000000     O
    O   1.0     0.125569     0.588077     0.667921  Biso 1.000000     O
    O   1.0     0.625577     0.588077     0.667921  Biso 1.000000     O
    O   1.0     0.164458     0.757947     0.761510  Biso 1.000000     O
    O   1.0     0.664466     0.757947     0.761510  Biso 1.000000     O
    O   1.0     0.196111     0.862465     0.907697  Biso 1.000000     O
    O   1.0     0.696119     0.862465     0.907697  Biso 1.000000     O
    O   1.0     0.378908     0.723481     0.758537  Biso 1.000000     O
    O   1.0     0.878916     0.723481     0.758537  Biso 1.000000     O
    O   1.0     0.424971     0.883053     0.800094  Biso 1.000000     O
    O   1.0     0.924979     0.883053     0.800094  Biso 1.000000     O
    O   1.0     0.273182     0.638540     0.707511  Biso 1.000000     O
    O   1.0     0.773190     0.638540     0.707511  Biso 1.000000     O
    O   1.0     0.177752     0.708376     0.596839  Biso 1.000000     O
    O   1.0     0.677760     0.708376     0.596839  Biso 1.000000     O
    O   1.0     0.379968     0.813433     0.922668  Biso 1.000000     O
    O   1.0     0.879976     0.813433     0.922668  Biso 1.000000     O
    O   1.0     0.353007     0.471314     0.485213  Biso 1.000000     O
    O   1.0     0.853014     0.471314     0.485213  Biso 1.000000     O
    O   1.0     0.436210     0.404022     0.556862  Biso 1.000000     O
    O   1.0     0.936218     0.404022     0.556862  Biso 1.000000     O
    O   1.0     0.147706     0.259054     0.514122  Biso 1.000000     O
    O   1.0     0.647713     0.259053     0.514122  Biso 1.000000     O
    O   1.0     0.012610     0.560603     0.617286  Biso 1.000000     O
    O   1.0     0.512618     0.560603     0.617286  Biso 1.000000     O
    O   1.0     0.380943     0.571864     0.646687  Biso 1.000000     O
    O   1.0     0.880951     0.571864     0.646687  Biso 1.000000     O
    O   1.0     0.016308     0.276208     0.492021  Biso 1.000000     O
    O   1.0     0.516316     0.276208     0.492020  Biso 1.000000     O
    O   1.0     0.089143     0.432974     0.583813  Biso 1.000000     O
    O   1.0     0.589151     0.432974     0.583813  Biso 1.000000     O
    O   1.0     0.330552     0.696953     0.623426  Biso 1.000000     O
    O   1.0     0.830560     0.696953     0.623426  Biso 1.000000     O
    O   1.0     0.024068     0.167815     0.209534  Biso 1.000000     O
    O   1.0     0.524076     0.167815     0.209534  Biso 1.000000     O
    O   1.0     0.375563     0.411878     0.332064  Biso 1.000000     O
    O   1.0     0.875571     0.411879     0.332064  Biso 1.000000     O
    O   1.0     0.414459     0.242013     0.238474  Biso 1.000000     O
    O   1.0     0.914467     0.242013     0.238474  Biso 1.000000     O
    O   1.0     0.446123     0.137500     0.092292  Biso 1.000000     O
    O   1.0     0.946131     0.137500     0.092292  Biso 1.000000     O
    O   1.0     0.128892     0.276493     0.241443  Biso 1.000000     O
    O   1.0     0.628900     0.276493     0.241443  Biso 1.000000     O
    O   1.0     0.174968     0.116923     0.199896  Biso 1.000000     O
    O   1.0     0.674976     0.116923     0.199896  Biso 1.000000     O
    O   1.0     0.023168     0.361430     0.292479  Biso 1.000000     O
    O   1.0     0.523176     0.361429     0.292479  Biso 1.000000     O
    O   1.0     0.427753     0.291587     0.403147  Biso 1.000000     O
    O   1.0     0.927761     0.291587     0.403147  Biso 1.000000     O
    O   1.0     0.129946     0.186531     0.077315  Biso 1.000000     O
    O   1.0     0.629954     0.186531     0.077314  Biso 1.000000     O
    F   1.0     0.185918     0.913323     0.534297  Biso 1.000000     F
    F   1.0     0.685926     0.913323     0.534297  Biso 1.000000     F
    F   1.0     0.083118     0.953054     0.918814  Biso 1.000000     F
    F   1.0     0.583126     0.953054     0.918814  Biso 1.000000     F
    F   1.0     0.480360     0.013024     0.555894  Biso 1.000000     F
    F   1.0     0.980368     0.013024     0.555894  Biso 1.000000     F
    F   1.0     0.341909     0.143178     0.000000  Biso 1.000000     F
    F   1.0     0.841917     0.143183     0.000043  Biso 1.000000     F
    F   1.0     0.435924     0.086649     0.465694  Biso 1.000000     F
    F   1.0     0.935932     0.086649     0.465694  Biso 1.000000     F
    F   1.0     0.333123     0.046920     0.081177  Biso 1.000000     F
    F   1.0     0.833131     0.046920     0.081177  Biso 1.000000     F
    F   1.0     0.230354     0.986947     0.444096  Biso 1.000000     F
    F   1.0     0.730362     0.986947     0.444096  Biso 1.000000     F
    F   1.0     0.091903     0.856794    -0.000044  Biso 1.000000     F
    F   1.0     0.591911     0.856794    -0.000045  Biso 1.000000     F
    F   1.0     0.435913     0.620187     0.534228  Biso 1.000000     F
    F   1.0     0.935921     0.620187     0.534228  Biso 1.000000     F
    F   1.0     0.333228     0.966235     0.918626  Biso 1.000000     F
    F   1.0     0.833236     0.966235     0.918626  Biso 1.000000     F
    F   1.0     0.230397     0.543193     0.555953  Biso 1.000000     F
    F   1.0     0.730405     0.543193     0.555953  Biso 1.000000     F
    F   1.0     0.185909     0.379785     0.465764  Biso 1.000000     F
    F   1.0     0.685917     0.379785     0.465764  Biso 1.000000     F
    F   1.0     0.083225     0.033735     0.081365  Biso 1.000000     F
    F   1.0     0.583233     0.033735     0.081365  Biso 1.000000     F
    F   1.0     0.480401     0.456780     0.444038  Biso 1.000000     F
    F   1.0     0.980409     0.456779     0.444038  Biso 1.000000     F
    P   1.0     0.445610     0.817488     0.508799  Biso 1.000000     P
    P   1.0     0.945618     0.817488     0.508799  Biso 1.000000     P
    P   1.0     0.341160     0.975060     0.317906  Biso 1.000000     P
    P   1.0     0.841168     0.975060     0.317906  Biso 1.000000     P
    P   1.0     0.451378     0.975201     0.819248  Biso 1.000000     P
    P   1.0     0.951386     0.975201     0.819248  Biso 1.000000     P
    P   1.0     0.333366     0.066718     0.593537  Biso 1.000000     P
    P   1.0     0.833373     0.066718     0.593538  Biso 1.000000     P
    P   1.0     0.169078     0.126345     0.999204  Biso 1.000000     P
    P   1.0     0.669086     0.126345     0.999203  Biso 1.000000     P
    P   1.0     0.195608     0.182478     0.491185  Biso 1.000000     P
    P   1.0     0.695616     0.182478     0.491185  Biso 1.000000     P
    P   1.0     0.091163     0.024907     0.682080  Biso 1.000000     P
    P   1.0     0.591171     0.024907     0.682080  Biso 1.000000     P
    P   1.0     0.201374     0.024775     0.180743  Biso 1.000000     P
    P   1.0     0.701382     0.024775     0.180743  Biso 1.000000     P
    P   1.0     0.083356     0.933247     0.406442  Biso 1.000000     P
    P   1.0     0.583364     0.933247     0.406441  Biso 1.000000     P
    P   1.0     0.419083     0.873631     0.000792  Biso 1.000000     P
    P   1.0     0.919091     0.873631     0.000792  Biso 1.000000     P
    P   1.0     0.195634     0.691005     0.508812  Biso 1.000000     P
    P   1.0     0.695642     0.691005     0.508813  Biso 1.000000     P
    P   1.0     0.091403     0.343025     0.317463  Biso 1.000000     P
    P   1.0     0.591411     0.343024     0.317463  Biso 1.000000     P
    P   1.0     0.201345     0.843527     0.819191  Biso 1.000000     P
    P   1.0     0.701352     0.843527     0.819191  Biso 1.000000     P
    P   1.0     0.083473     0.526584     0.593409  Biso 1.000000     P
    P   1.0     0.583481     0.526584     0.593409  Biso 1.000000     P
    P   1.0     0.445639     0.308961     0.491174  Biso 1.000000     P
    P   1.0     0.945647     0.308960     0.491174  Biso 1.000000     P
    P   1.0     0.341414     0.656944     0.682522  Biso 1.000000     P
    P   1.0     0.841422     0.656944     0.682522  Biso 1.000000     P
    P   1.0     0.451350     0.156436     0.180798  Biso 1.000000     P
    P   1.0     0.951358     0.156436     0.180798  Biso 1.000000     P
    P   1.0     0.333473     0.473379     0.406576  Biso 1.000000     P
    P   1.0     0.833481     0.473379     0.406577  Biso 1.000000     P
   Ga   1.0     0.104771     0.996529     0.843143  Biso 1.000000    Ga
   Ga   1.0     0.604778     0.996529     0.843143  Biso 1.000000    Ga
   Ga   1.0     0.100342     0.846646     0.514907  Biso 1.000000    Ga
   Ga   1.0     0.600350     0.846646     0.514907  Biso 1.000000    Ga
   Ga   1.0     0.444947     0.007558     0.666249  Biso 1.000000    Ga
   Ga   1.0     0.944955     0.007559     0.666250  Biso 1.000000    Ga
   Ga   1.0     0.434176     0.963552     0.450968  Biso 1.000000    Ga
   Ga   1.0     0.934183     0.963552     0.450968  Biso 1.000000    Ga
   Ga   1.0     0.394954     0.053856     0.999995  Biso 1.000000    Ga
   Ga   1.0     0.894962     0.053856     0.999995  Biso 1.000000    Ga
   Ga   1.0     0.354769     0.003443     0.156845  Biso 1.000000    Ga
   Ga   1.0     0.854777     0.003443     0.156845  Biso 1.000000    Ga
   Ga   1.0     0.350347     0.153323     0.485078  Biso 1.000000    Ga
   Ga   1.0     0.850355     0.153323     0.485078  Biso 1.000000    Ga
   Ga   1.0     0.194937     0.992408     0.333735  Biso 1.000000    Ga
   Ga   1.0     0.694945     0.992407     0.333735  Biso 1.000000    Ga
   Ga   1.0     0.184170     0.036416     0.549013  Biso 1.000000    Ga
   Ga   1.0     0.684178     0.036416     0.549013  Biso 1.000000    Ga
   Ga   1.0     0.144947     0.946118    -0.000005  Biso 1.000000    Ga
   Ga   1.0     0.644955     0.946118    -0.000005  Biso 1.000000    Ga
   Ga   1.0     0.354997     0.846473     0.843493  Biso 1.000000    Ga
   Ga   1.0     0.855005     0.846473     0.843493  Biso 1.000000    Ga
   Ga   1.0     0.350239     0.668039     0.515071  Biso 1.000000    Ga
   Ga   1.0     0.850247     0.668040     0.515071  Biso 1.000000    Ga
   Ga   1.0     0.195298     0.657669     0.666087  Biso 1.000000    Ga
   Ga   1.0     0.695306     0.657669     0.666087  Biso 1.000000    Ga
   Ga   1.0     0.184113     0.487381     0.450816  Biso 1.000000    Ga
   Ga   1.0     0.684120     0.487381     0.450816  Biso 1.000000    Ga
   Ga   1.0     0.104989     0.153499     0.156498  Biso 1.000000    Ga
   Ga   1.0     0.604997     0.153499     0.156498  Biso 1.000000    Ga
   Ga   1.0     0.100235     0.331920     0.484910  Biso 1.000000    Ga
   Ga   1.0     0.600242     0.331920     0.484910  Biso 1.000000    Ga
   Ga   1.0     0.445295     0.342291     0.333898  Biso 1.000000    Ga
   Ga   1.0     0.945303     0.342291     0.333898  Biso 1.000000    Ga
   Ga   1.0     0.434121     0.512587     0.549171  Biso 1.000000    Ga
   Ga   1.0     0.934129     0.512587     0.549171  Biso 1.000000    Ga
   Rb   1.0     0.029936     0.102905     0.328932  Biso 1.000000    Rb
   Rb   1.0     0.529944     0.102904     0.328932  Biso 1.000000    Rb
   Rb   1.0     0.279947     0.897034     0.671046  Biso 1.000000    Rb
   Rb   1.0     0.779955     0.897035     0.671046  Biso 1.000000    Rb
   Rb   1.0     0.280478     0.225844     0.329239  Biso 1.000000    Rb
   Rb   1.0     0.780486     0.225843     0.329239  Biso 1.000000    Rb
   Rb   1.0     0.030478     0.774133     0.670746  Biso 1.000000    Rb
   Rb   1.0     0.530485     0.774133     0.670746  Biso 1.000000    Rb
