#======================================================================

# CRYSTAL DATA

#----------------------------------------------------------------------

data_VESTA_phase_1


_pd_phase_name                         MOF
_cell_length_a                         12.62600
_cell_length_b                         14.24800
_cell_length_c                         14.05000
_cell_angle_alpha                      98.35300
_cell_angle_beta                       102.98200
_cell_angle_gamma                      76.55100
_symmetry_space_group_name_H-M         "P 1"
_symmetry_Int_Tables_number            1

loop_
_symmetry_equiv_pos_as_xyz
   "x, y, z"

loop_
   _atom_site_label
   _atom_site_occupancy
   _atom_site_fract_x
   _atom_site_fract_y
   _atom_site_fract_z
   _atom_site_adp_type
   _atom_site_B_iso_or_equiv
   _atom_site_type_symbol
    H   1.0     0.026703     0.339467     0.175780  Biso 1.000000     H
    H   1.0     0.933134     0.319404     0.309133  Biso 1.000000     H
    H   1.0     0.670076     0.226654     0.089859  Biso 1.000000     H
    H   1.0     0.878583     0.373451     0.812572  Biso 1.000000     H
    H   1.0     0.766865     0.481652     0.686111  Biso 1.000000     H
    H   1.0     0.007375     0.355055     0.503768  Biso 1.000000     H
    H   1.0     0.113315     0.253748     0.641142  Biso 1.000000     H
    H   1.0     0.869957     0.497454     0.455899  Biso 1.000000     H
    H   1.0     0.803329     0.571421     0.546685  Biso 1.000000     H
    H   1.0     0.351890     0.191008     0.896781  Biso 1.000000     H
    H   1.0     0.503288     0.280872     0.927997  Biso 1.000000     H
    H   1.0     0.255249     0.546591     0.941031  Biso 1.000000     H
    H   1.0     0.113521     0.445902     0.917809  Biso 1.000000     H
    H   1.0     0.447541     0.543723     0.902355  Biso 1.000000     H
    H   1.0     0.552682     0.436894     0.917163  Biso 1.000000     H
    H   1.0     0.474160     0.144257     0.352608  Biso 1.000000     H
    H   1.0     0.561359     0.281831     0.340280  Biso 1.000000     H
    H   1.0     0.825472     0.078279     0.228001  Biso 1.000000     H
    H   1.0     0.633564     0.772494     0.313488  Biso 1.000000     H
    H   1.0     0.760358     0.639183     0.400463  Biso 1.000000     H
    H   1.0     0.481570     0.501754     0.368689  Biso 1.000000     H
    H   1.0     0.364608     0.641105     0.276644  Biso 1.000000     H
    H   1.0     0.717310     0.410014     0.402021  Biso 1.000000     H
    H   1.0     0.657826     0.461502     0.504069  Biso 1.000000     H
    H   1.0     0.145249     0.873518     0.186834  Biso 1.000000     H
    H   1.0    -0.005249     0.912710     0.280708  Biso 1.000000     H
    H   1.0     0.243456     0.940364     0.544980  Biso 1.000000     H
    H   1.0     0.384687     0.907562     0.439179  Biso 1.000000     H
    H   1.0     0.050288     0.905885     0.549161  Biso 1.000000     H
    H   1.0     0.944971     0.917993     0.441527  Biso 1.000000     H
    H   1.0     0.973290     0.660559     0.824203  Biso 1.000000     H
    H   1.0     0.066855     0.680624     0.690849  Biso 1.000000     H
    H   1.0     0.329932     0.773347     0.910125  Biso 1.000000     H
    H   1.0     0.121424     0.626561     0.187419  Biso 1.000000     H
    H   1.0     0.233173     0.518406     0.313908  Biso 1.000000     H
    H   1.0     0.992709     0.645075     0.496279  Biso 1.000000     H
    H   1.0     0.886734     0.746329     0.358874  Biso 1.000000     H
    H   1.0     0.130133     0.502715     0.544191  Biso 1.000000     H
    H   1.0     0.196657     0.428674     0.453381  Biso 1.000000     H
    H   1.0     0.648118     0.808994     0.103203  Biso 1.000000     H
    H   1.0     0.496721     0.719130     0.071977  Biso 1.000000     H
    H   1.0     0.744764     0.453411     0.058968  Biso 1.000000     H
    H   1.0     0.886493     0.554099     0.082196  Biso 1.000000     H
    H   1.0     0.552469     0.456278     0.097630  Biso 1.000000     H
    H   1.0     0.447328     0.563107     0.082821  Biso 1.000000     H
    H   1.0     0.525821     0.855758     0.647345  Biso 1.000000     H
    H   1.0     0.438624     0.718185     0.659677  Biso 1.000000     H
    H   1.0     0.174520     0.921741     0.771968  Biso 1.000000     H
    H   1.0     0.366439     0.227583     0.686536  Biso 1.000000     H
    H   1.0     0.239680     0.360923     0.599575  Biso 1.000000     H
    H   1.0     0.518564     0.498203     0.631230  Biso 1.000000     H
    H   1.0     0.635481     0.358842     0.723279  Biso 1.000000     H
    H   1.0     0.282873     0.590044     0.597953  Biso 1.000000     H
    H   1.0     0.342270     0.538490     0.495872  Biso 1.000000     H
    H   1.0     0.854767     0.126493     0.813124  Biso 1.000000     H
    H   1.0     0.000000     0.087338     0.719236  Biso 1.000000     H
    H   1.0     0.756529     0.059706     0.454973  Biso 1.000000     H
    H   1.0     0.615313     0.092469     0.560785  Biso 1.000000     H
    H   1.0     0.949693     0.094190     0.450783  Biso 1.000000     H
    H   1.0     0.055014     0.082083     0.558415  Biso 1.000000     H
    C   1.0     0.799425     0.263961     0.034540  Biso 1.000000     C
    C   1.0     0.901714     0.294019     0.058708  Biso 1.000000     C
    C   1.0     0.948412     0.314805     0.157623  Biso 1.000000     C
    C   1.0     0.896725     0.304032     0.232006  Biso 1.000000     C
    C   1.0     0.796937     0.271683     0.207272  Biso 1.000000     C
    C   1.0     0.748146     0.251594     0.109220  Biso 1.000000     C
    C   1.0     0.738413     0.253782     0.929489  Biso 1.000000     C
    C   1.0     0.965701     0.303065     0.983230  Biso 1.000000     C
    C   1.0     0.904629     0.372045     0.743422  Biso 1.000000     C
    C   1.0     0.842348     0.431357     0.671620  Biso 1.000000     C
    C   1.0     0.878323     0.428646     0.583688  Biso 1.000000     C
    C   1.0     0.976071     0.361919     0.571312  Biso 1.000000     C
    C   1.0     0.035375     0.305279     0.646276  Biso 1.000000     C
    C   1.0     0.816989     0.497689     0.508368  Biso 1.000000     C
    C   1.0     0.333411     0.269867     0.908211  Biso 1.000000     C
    C   1.0     0.418028     0.321129     0.924974  Biso 1.000000     C
    C   1.0     0.392348     0.422687     0.933863  Biso 1.000000     C
    C   1.0     0.280788     0.467926     0.931710  Biso 1.000000     C
    C   1.0     0.200325     0.412557     0.917029  Biso 1.000000     C
    C   1.0     0.480644     0.481112     0.945786  Biso 1.000000     C
    C   1.0     0.700727     0.016140     0.263739  Biso 1.000000     C
    C   1.0     0.600007     0.034561     0.297296  Biso 1.000000     C
    C   1.0     0.551035     0.130417     0.325061  Biso 1.000000     C
    C   1.0     0.599168     0.207218     0.318415  Biso 1.000000     C
    C   1.0     0.697589     0.188349     0.282969  Biso 1.000000     C
    C   1.0     0.748419     0.093429     0.255333  Biso 1.000000     C
    C   1.0     0.763796     0.913762     0.246389  Biso 1.000000     C
    C   1.0     0.538960     0.956835     0.302759  Biso 1.000000     C
    C   1.0     0.602375     0.711336     0.326675  Biso 1.000000     C
    C   1.0     0.673132     0.635749     0.376244  Biso 1.000000     C
    C   1.0     0.632091     0.558505     0.394822  Biso 1.000000     C
    C   1.0     0.518600     0.560504     0.358065  Biso 1.000000     C
    C   1.0     0.452500     0.637518     0.308040  Biso 1.000000     C
    C   1.0     0.704065     0.476850     0.452267  Biso 1.000000     C
    C   1.0     0.164132     0.889796     0.266207  Biso 1.000000     C
    C   1.0     0.080081     0.910794     0.319844  Biso 1.000000     C
    C   1.0     0.106189     0.926884     0.422317  Biso 1.000000     C
    C   1.0     0.217695     0.926068     0.465859  Biso 1.000000     C
    C   1.0     0.297650     0.906540     0.408063  Biso 1.000000     C
    C   1.0     0.018100     0.945490     0.483413  Biso 1.000000     C
    C   1.0     0.200583     0.736040     0.965445  Biso 1.000000     C
    C   1.0     0.098290     0.705989     0.941278  Biso 1.000000     C
    C   1.0     0.051584     0.685214     0.842361  Biso 1.000000     C
    C   1.0     0.103267     0.695992     0.767976  Biso 1.000000     C
    C   1.0     0.203061     0.728331     0.792712  Biso 1.000000     C
    C   1.0     0.251857     0.748415     0.890764  Biso 1.000000     C
    C   1.0     0.261604     0.746212     0.070495  Biso 1.000000     C
    C   1.0     0.034305     0.696938     0.016757  Biso 1.000000     C
    C   1.0     0.095395     0.627992     0.256581  Biso 1.000000     C
    C   1.0     0.157693     0.568706     0.328399  Biso 1.000000     C
    C   1.0     0.121738     0.571447     0.416347  Biso 1.000000     C
    C   1.0     0.023996     0.638184     0.428723  Biso 1.000000     C
    C   1.0     0.964673     0.694796     0.353743  Biso 1.000000     C
    C   1.0     0.183073     0.502418     0.491680  Biso 1.000000     C
    C   1.0     0.666599     0.730135     0.091777  Biso 1.000000     C
    C   1.0     0.581982     0.678872     0.075009  Biso 1.000000     C
    C   1.0     0.607663     0.577314     0.066123  Biso 1.000000     C
    C   1.0     0.719225     0.532076     0.068286  Biso 1.000000     C
    C   1.0     0.799688     0.587445     0.082971  Biso 1.000000     C
    C   1.0     0.519366     0.518889     0.054199  Biso 1.000000     C
    C   1.0     0.299261     0.983877     0.736222  Biso 1.000000     C
    C   1.0     0.399984     0.965456     0.702669  Biso 1.000000     C
    C   1.0     0.448947     0.869600     0.674894  Biso 1.000000     C
    C   1.0     0.400823     0.792798     0.681553  Biso 1.000000     C
    C   1.0     0.302405     0.811666     0.717003  Biso 1.000000     C
    C   1.0     0.251576     0.906587     0.744642  Biso 1.000000     C
    C   1.0     0.236196     0.086257     0.753579  Biso 1.000000     C
    C   1.0     0.461050     0.043172     0.697216  Biso 1.000000     C
    C   1.0     0.397654     0.288718     0.673331  Biso 1.000000     C
    C   1.0     0.326919     0.364319     0.623766  Biso 1.000000     C
    C   1.0     0.367998     0.441528     0.605158  Biso 1.000000     C
    C   1.0     0.481503     0.439483     0.641882  Biso 1.000000     C
    C   1.0     0.547579     0.362460     0.691908  Biso 1.000000     C
    C   1.0     0.296047     0.523195     0.547715  Biso 1.000000     C
    C   1.0     0.835877     0.110229     0.733749  Biso 1.000000     C
    C   1.0     0.919920     0.089253     0.680104  Biso 1.000000     C
    C   1.0     0.893802     0.073179     0.577630  Biso 1.000000     C
    C   1.0     0.782296     0.073990     0.534095  Biso 1.000000     C
    C   1.0     0.702350     0.093497     0.591898  Biso 1.000000     C
    C   1.0     0.981886     0.054583     0.516530  Biso 1.000000     C
    N   1.0     0.001301     0.310923     0.731832  Biso 1.000000     N
    N   1.0     0.225510     0.314411     0.902705  Biso 1.000000     N
    N   1.0     0.493230     0.712863     0.293388  Biso 1.000000     N
    N   1.0     0.271939     0.886470     0.309318  Biso 1.000000     N
    N   1.0     0.998725     0.689117     0.268172  Biso 1.000000     N
    N   1.0     0.774501     0.685591     0.097290  Biso 1.000000     N
    N   1.0     0.506812     0.287149     0.706589  Biso 1.000000     N
    N   1.0     0.728069     0.113548     0.690645  Biso 1.000000     N
    O   1.0     0.677985     0.188474     0.909258  Biso 1.000000     O
    O   1.0     0.745607     0.308790     0.870535  Biso 1.000000     O
    O   1.0     0.996753     0.222976     0.929797  Biso 1.000000     O
    O   1.0    -0.009930     0.382150     0.979541  Biso 1.000000     O
    O   1.0     0.827453     0.898947     0.182637  Biso 1.000000     O
    O   1.0     0.754869     0.850362     0.295571  Biso 1.000000     O
    O   1.0     0.500091     0.913903     0.217976  Biso 1.000000     O
    O   1.0     0.523009     0.942733     0.383252  Biso 1.000000     O
    O   1.0     0.322030     0.811521     0.090724  Biso 1.000000     O
    O   1.0     0.254409     0.691208     0.129453  Biso 1.000000     O
    O   1.0     0.003249     0.777026     0.070189  Biso 1.000000     O
    O   1.0     0.000000     0.617847     0.020455  Biso 1.000000     O
    O   1.0     0.172550     0.101067     0.817341  Biso 1.000000     O
    O   1.0     0.245154     0.149673     0.704434  Biso 1.000000     O
    O   1.0     0.499917     0.086103     0.781999  Biso 1.000000     O
    O   1.0     0.477003     0.057276     0.616725  Biso 1.000000     O
    O   1.0     0.745428     0.267420     0.283973  Biso 1.000000     O
    O   1.0     0.254576     0.732591     0.716013  Biso 1.000000     O
   Zn   1.0     0.101214     0.238636     0.850718  Biso 1.000000    Zn
   Zn   1.0     0.394516     0.835425     0.229728  Biso 1.000000    Zn
   Zn   1.0     0.898797     0.761368     0.149277  Biso 1.000000    Zn
   Zn   1.0     0.605502     0.164572     0.770256  Biso 1.000000    Zn
