#======================================================================

# CRYSTAL DATA

#----------------------------------------------------------------------

data_VESTA_phase_1


_pd_phase_name                         MOF
_cell_length_a                         17.51300
_cell_length_b                         17.50300
_cell_length_c                         14.77900
_cell_angle_alpha                      91.57800
_cell_angle_beta                       91.56800
_cell_angle_gamma                      90.54300
_symmetry_space_group_name_H-M         "P 1"
_symmetry_Int_Tables_number            1

loop_
_symmetry_equiv_pos_as_xyz
   "x, y, z"

loop_
   _atom_site_label
   _atom_site_occupancy
   _atom_site_fract_x
   _atom_site_fract_y
   _atom_site_fract_z
   _atom_site_adp_type
   _atom_site_B_iso_or_equiv
   _atom_site_type_symbol
    H   1.0     0.043438     0.097768     0.936608  Biso 1.000000     H
    H   1.0     0.043440     0.597780     0.936608  Biso 1.000000     H
    H   1.0     0.543426     0.097768     0.936607  Biso 1.000000     H
    H   1.0     0.543429     0.597780     0.936607  Biso 1.000000     H
    H   1.0     0.448611     0.097890     0.938071  Biso 1.000000     H
    H   1.0     0.448614     0.597902     0.938071  Biso 1.000000     H
    H   1.0     0.948600     0.097890     0.938071  Biso 1.000000     H
    H   1.0     0.948603     0.597901     0.938071  Biso 1.000000     H
    H   1.0     0.499122     0.083896     0.032925  Biso 1.000000     H
    H   1.0     0.499124     0.583907     0.032925  Biso 1.000000     H
    H   1.0     0.999110     0.083896     0.032925  Biso 1.000000     H
    H   1.0     0.999113     0.583907     0.032925  Biso 1.000000     H
    H   1.0     0.402144     0.456556     0.563272  Biso 1.000000     H
    H   1.0     0.402147     0.956567     0.563271  Biso 1.000000     H
    H   1.0     0.902133     0.456556     0.563272  Biso 1.000000     H
    H   1.0     0.902136     0.956567     0.563271  Biso 1.000000     H
    H   1.0     0.402011     0.051415     0.561835  Biso 1.000000     H
    H   1.0     0.402013     0.551426     0.561835  Biso 1.000000     H
    H   1.0     0.901999     0.051415     0.561835  Biso 1.000000     H
    H   1.0     0.902002     0.551426     0.561835  Biso 1.000000     H
    H   1.0     0.415971     0.000888     0.466976  Biso 1.000000     H
    H   1.0     0.415973     0.500900     0.466976  Biso 1.000000     H
    H   1.0     0.915960     0.000889     0.466976  Biso 1.000000     H
    H   1.0     0.915962     0.500900     0.466976  Biso 1.000000     H
    H   1.0     0.456548     0.402250     0.063373  Biso 1.000000     H
    H   1.0     0.456550     0.902261     0.063373  Biso 1.000000     H
    H   1.0     0.956536     0.402250     0.063373  Biso 1.000000     H
    H   1.0     0.956539     0.902261     0.063372  Biso 1.000000     H
    H   1.0     0.051373     0.402128     0.061909  Biso 1.000000     H
    H   1.0     0.051376     0.902139     0.061909  Biso 1.000000     H
    H   1.0     0.551362     0.402128     0.061909  Biso 1.000000     H
    H   1.0     0.551365     0.902139     0.061909  Biso 1.000000     H
    H   1.0     0.000864     0.416122     0.967055  Biso 1.000000     H
    H   1.0     0.000866     0.916133     0.967055  Biso 1.000000     H
    H   1.0     0.500852     0.416122     0.967055  Biso 1.000000     H
    H   1.0     0.500855     0.916134     0.967055  Biso 1.000000     H
    H   1.0     0.097841     0.043463     0.436709  Biso 1.000000     H
    H   1.0     0.097843     0.543474     0.436709  Biso 1.000000     H
    H   1.0     0.597829     0.043463     0.436709  Biso 1.000000     H
    H   1.0     0.597832     0.543474     0.436709  Biso 1.000000     H
    H   1.0     0.097974     0.448603     0.438145  Biso 1.000000     H
    H   1.0     0.097977     0.948615     0.438145  Biso 1.000000     H
    H   1.0     0.597963     0.448603     0.438145  Biso 1.000000     H
    H   1.0     0.597966     0.948615     0.438145  Biso 1.000000     H
    H   1.0     0.084014     0.499130     0.533005  Biso 1.000000     H
    H   1.0     0.084016     0.999141     0.533005  Biso 1.000000     H
    H   1.0     0.584003     0.499130     0.533004  Biso 1.000000     H
    H   1.0     0.584005     0.999141     0.533005  Biso 1.000000     H
    C   1.0     0.145458     0.257202     0.841098  Biso 1.000000     C
    C   1.0     0.145460     0.757214     0.841098  Biso 1.000000     C
    C   1.0     0.645446     0.257202     0.841098  Biso 1.000000     C
    C   1.0     0.645449     0.757214     0.841098  Biso 1.000000     C
    C   1.0     0.241930     0.149356     0.662563  Biso 1.000000     C
    C   1.0     0.241932     0.649367     0.662563  Biso 1.000000     C
    C   1.0     0.741919     0.149356     0.662563  Biso 1.000000     C
    C   1.0     0.741921     0.649367     0.662563  Biso 1.000000     C
    C   1.0     0.242827     0.354605     0.659044  Biso 1.000000     C
    C   1.0     0.242829     0.854616     0.659043  Biso 1.000000     C
    C   1.0     0.742816     0.354605     0.659043  Biso 1.000000     C
    C   1.0     0.742818     0.854616     0.659043  Biso 1.000000     C
    C   1.0     0.350663     0.258114     0.837535  Biso 1.000000     C
    C   1.0     0.350665     0.758125     0.837535  Biso 1.000000     C
    C   1.0     0.850652     0.258114     0.837535  Biso 1.000000     C
    C   1.0     0.850654     0.758125     0.837535  Biso 1.000000     C
    C   1.0     0.354527     0.242816     0.158883  Biso 1.000000     C
    C   1.0     0.354530     0.742827     0.158882  Biso 1.000000     C
    C   1.0     0.854516     0.242816     0.158882  Biso 1.000000     C
    C   1.0     0.854518     0.742827     0.158882  Biso 1.000000     C
    C   1.0     0.258055     0.350662     0.337417  Biso 1.000000     C
    C   1.0     0.258057     0.850673     0.337417  Biso 1.000000     C
    C   1.0     0.758044     0.350662     0.337417  Biso 1.000000     C
    C   1.0     0.758046     0.850673     0.337417  Biso 1.000000     C
    C   1.0     0.257158     0.145414     0.340937  Biso 1.000000     C
    C   1.0     0.257160     0.645425     0.340937  Biso 1.000000     C
    C   1.0     0.757147     0.145414     0.340937  Biso 1.000000     C
    C   1.0     0.757149     0.645425     0.340937  Biso 1.000000     C
    C   1.0     0.149322     0.241904     0.162445  Biso 1.000000     C
    C   1.0     0.149325     0.741916     0.162445  Biso 1.000000     C
    C   1.0     0.649311     0.241904     0.162445  Biso 1.000000     C
    C   1.0     0.649313     0.741916     0.162445  Biso 1.000000     C
    N   1.0     0.094811     0.257869     0.891265  Biso 1.000000     N
    N   1.0     0.094814     0.757880     0.891265  Biso 1.000000     N
    N   1.0     0.594800     0.257869     0.891265  Biso 1.000000     N
    N   1.0     0.594802     0.757880     0.891265  Biso 1.000000     N
    N   1.0     0.095578     0.240818     0.113436  Biso 1.000000     N
    N   1.0     0.095581     0.740830     0.113436  Biso 1.000000     N
    N   1.0     0.595567     0.240818     0.113436  Biso 1.000000     N
    N   1.0     0.595569     0.740829     0.113436  Biso 1.000000     N
    N   1.0     0.497428     0.113403     0.974028  Biso 1.000000     N
    N   1.0     0.497430     0.613414     0.974028  Biso 1.000000     N
    N   1.0     0.997417     0.113403     0.974028  Biso 1.000000     N
    N   1.0     0.997419     0.613414     0.974028  Biso 1.000000     N
    N   1.0     0.242169     0.405208     0.608784  Biso 1.000000     N
    N   1.0     0.242171     0.905219     0.608784  Biso 1.000000     N
    N   1.0     0.742158     0.405208     0.608784  Biso 1.000000     N
    N   1.0     0.742160     0.905219     0.608784  Biso 1.000000     N
    N   1.0     0.259170     0.404377     0.386530  Biso 1.000000     N
    N   1.0     0.259173     0.904389     0.386530  Biso 1.000000     N
    N   1.0     0.759159     0.404377     0.386530  Biso 1.000000     N
    N   1.0     0.759162     0.904389     0.386530  Biso 1.000000     N
    N   1.0     0.386506     0.002571     0.525872  Biso 1.000000     N
    N   1.0     0.386509     0.502582     0.525872  Biso 1.000000     N
    N   1.0     0.886495     0.002571     0.525872  Biso 1.000000     N
    N   1.0     0.886497     0.502582     0.525872  Biso 1.000000     N
    N   1.0     0.405174     0.242150     0.108715  Biso 1.000000     N
    N   1.0     0.405176     0.742161     0.108715  Biso 1.000000     N
    N   1.0     0.905162     0.242149     0.108715  Biso 1.000000     N
    N   1.0     0.905165     0.742161     0.108715  Biso 1.000000     N
    N   1.0     0.404407     0.259200     0.886544  Biso 1.000000     N
    N   1.0     0.404409     0.759211     0.886544  Biso 1.000000     N
    N   1.0     0.904396     0.259200     0.886544  Biso 1.000000     N
    N   1.0     0.904398     0.759211     0.886544  Biso 1.000000     N
    N   1.0     0.002557     0.386616     0.025952  Biso 1.000000     N
    N   1.0     0.002560     0.886627     0.025952  Biso 1.000000     N
    N   1.0     0.502546     0.386616     0.025952  Biso 1.000000     N
    N   1.0     0.502548     0.886627     0.025952  Biso 1.000000     N
    N   1.0     0.257816     0.094811     0.391196  Biso 1.000000     N
    N   1.0     0.257818     0.594822     0.391196  Biso 1.000000     N
    N   1.0     0.757805     0.094811     0.391196  Biso 1.000000     N
    N   1.0     0.757807     0.594822     0.391196  Biso 1.000000     N
    N   1.0     0.240815     0.095641     0.613450  Biso 1.000000     N
    N   1.0     0.240817     0.595652     0.613450  Biso 1.000000     N
    N   1.0     0.740803     0.095641     0.613450  Biso 1.000000     N
    N   1.0     0.740806     0.595652     0.613450  Biso 1.000000     N
    N   1.0     0.113479     0.497448     0.474108  Biso 1.000000     N
    N   1.0     0.113481     0.997459     0.474108  Biso 1.000000     N
    N   1.0     0.613468     0.497448     0.474108  Biso 1.000000     N
    N   1.0     0.613470     0.997459     0.474108  Biso 1.000000     N
   Cd   1.0     0.244796     0.255249     0.750093  Biso 1.000000    Cd
   Cd   1.0     0.244799     0.755261     0.750093  Biso 1.000000    Cd
   Cd   1.0     0.744785     0.255249     0.750093  Biso 1.000000    Cd
   Cd   1.0     0.744787     0.755260     0.750093  Biso 1.000000    Cd
   Cd   1.0     0.255189     0.244769     0.249887  Biso 1.000000    Cd
   Cd   1.0     0.255191     0.744780     0.249887  Biso 1.000000    Cd
   Cd   1.0     0.755178     0.244769     0.249887  Biso 1.000000    Cd
   Cd   1.0     0.755180     0.744780     0.249887  Biso 1.000000    Cd
   Cd   1.0     0.000001     0.250006    -0.000000  Biso 1.000000    Cd
   Cd   1.0     0.000004     0.750017    -0.000000  Biso 1.000000    Cd
   Cd   1.0     0.499990     0.250006     0.000000  Biso 1.000000    Cd
   Cd   1.0     0.499993     0.750017     0.000000  Biso 1.000000    Cd
   Cd   1.0     0.249991     0.000004     0.499990  Biso 1.000000    Cd
   Cd   1.0     0.249994     0.500015     0.499990  Biso 1.000000    Cd
   Cd   1.0     0.749980     0.000003     0.499990  Biso 1.000000    Cd
   Cd   1.0     0.749982     0.500015     0.499990  Biso 1.000000    Cd
