#======================================================================

# CRYSTAL DATA

#----------------------------------------------------------------------

data_VESTA_phase_1


_pd_phase_name                         MOF
_cell_length_a                         13.51400
_cell_length_b                         18.16700
_cell_length_c                         19.30100
_cell_angle_alpha                      90.12600
_cell_angle_beta                       96.26900
_cell_angle_gamma                      90.07000
_symmetry_space_group_name_H-M         "P 1"
_symmetry_Int_Tables_number            1

loop_
_symmetry_equiv_pos_as_xyz
   "x, y, z"

loop_
   _atom_site_label
   _atom_site_occupancy
   _atom_site_fract_x
   _atom_site_fract_y
   _atom_site_fract_z
   _atom_site_adp_type
   _atom_site_B_iso_or_equiv
   _atom_site_type_symbol
    H   1.0     0.012343     0.799923     0.592812  Biso 1.000000     H
    H   1.0     0.512994     0.799686     0.592003  Biso 1.000000     H
    H   1.0     0.116726     0.760574     0.501133  Biso 1.000000     H
    H   1.0     0.617875     0.760201     0.500675  Biso 1.000000     H
    H   1.0     0.285694     0.707620     0.535770  Biso 1.000000     H
    H   1.0     0.786769     0.707327     0.535790  Biso 1.000000     H
    H   1.0     0.343006     0.688476     0.660979  Biso 1.000000     H
    H   1.0     0.843508     0.688421     0.661114  Biso 1.000000     H
    H   1.0     0.327231     0.707129     0.779121  Biso 1.000000     H
    H   1.0     0.827163     0.707321     0.779152  Biso 1.000000     H
    H   1.0     0.234710     0.765247     0.807861  Biso 1.000000     H
    H   1.0     0.734322     0.765337     0.807592  Biso 1.000000     H
    H   1.0     0.058609     0.760352     0.779139  Biso 1.000000     H
    H   1.0     0.558375     0.760451     0.778428  Biso 1.000000     H
    H   1.0     0.475889     0.796974     0.709063  Biso 1.000000     H
    H   1.0     0.975822     0.797027     0.710011  Biso 1.000000     H
    H   1.0     0.379808     0.471497     0.741941  Biso 1.000000     H
    H   1.0     0.879979     0.471299     0.742142  Biso 1.000000     H
    H   1.0     0.251191     0.475375     0.641835  Biso 1.000000     H
    H   1.0     0.751410     0.475162     0.641974  Biso 1.000000     H
    H   1.0     0.461631     0.593215     0.528721  Biso 1.000000     H
    H   1.0     0.961908     0.593048     0.528967  Biso 1.000000     H
    H   1.0     0.083428     0.584808     0.636324  Biso 1.000000     H
    H   1.0     0.583195     0.584962     0.636051  Biso 1.000000     H
    H   1.0     0.299379     0.568036     0.470161  Biso 1.000000     H
    H   1.0     0.799617     0.567835     0.470362  Biso 1.000000     H
    H   1.0     0.204969     0.571066     0.526553  Biso 1.000000     H
    H   1.0     0.705215     0.570847     0.526755  Biso 1.000000     H
    H   1.0     0.016307     0.398166     0.863283  Biso 1.000000     H
    H   1.0     0.516654     0.398012     0.862946  Biso 1.000000     H
    H   1.0     0.402347     0.386002     0.955634  Biso 1.000000     H
    H   1.0     0.901910     0.386289     0.955948  Biso 1.000000     H
    H   1.0     0.363096     0.621602     0.946532  Biso 1.000000     H
    H   1.0     0.863031     0.621920     0.946769  Biso 1.000000     H
    H   1.0     0.482896     0.624764     0.856808  Biso 1.000000     H
    H   1.0     0.982765     0.624926     0.856998  Biso 1.000000     H
    H   1.0     0.318193     0.547479     0.050718  Biso 1.000000     H
    H   1.0     0.817945     0.547863     0.050976  Biso 1.000000     H
    H   1.0     0.320166     0.450077     0.047713  Biso 1.000000     H
    H   1.0     0.819884     0.450457     0.047983  Biso 1.000000     H
    H   1.0     0.239561     0.300132     0.907682  Biso 1.000000     H
    H   1.0     0.738472     0.300553     0.906601  Biso 1.000000     H
    H   1.0     0.135983     0.260596     0.999655  Biso 1.000000     H
    H   1.0     0.634678     0.261211     0.998518  Biso 1.000000     H
    H   1.0     0.465482     0.207956     0.964232  Biso 1.000000     H
    H   1.0     0.966575     0.207645     0.965449  Biso 1.000000     H
    H   1.0     0.407416     0.188523     0.839087  Biso 1.000000     H
    H   1.0     0.908192     0.188517     0.840300  Biso 1.000000     H
    H   1.0     0.422682     0.206644     0.720882  Biso 1.000000     H
    H   1.0     0.923208     0.206895     0.722096  Biso 1.000000     H
    H   1.0     0.015557     0.265116     0.693172  Biso 1.000000     H
    H   1.0     0.514860     0.265028     0.691988  Biso 1.000000     H
    H   1.0     0.191837     0.260590     0.721306  Biso 1.000000     H
    H   1.0     0.691191     0.260343     0.720264  Biso 1.000000     H
    H   1.0     0.274962     0.297613     0.790281  Biso 1.000000     H
    H   1.0     0.774276     0.297433     0.789230  Biso 1.000000     H
    H   1.0     0.369971     0.971418     0.757846  Biso 1.000000     H
    H   1.0     0.869852     0.971482     0.757791  Biso 1.000000     H
    H   1.0     0.498573     0.975171     0.858009  Biso 1.000000     H
    H   1.0     0.998507     0.975248     0.857926  Biso 1.000000     H
    H   1.0     0.288861     0.093516     0.971490  Biso 1.000000     H
    H   1.0     0.788751     0.093339     0.971546  Biso 1.000000     H
    H   1.0     0.167293     0.085352     0.864114  Biso 1.000000     H
    H   1.0     0.667121     0.085184     0.864216  Biso 1.000000     H
    H   1.0     0.450830     0.068000     0.030021  Biso 1.000000     H
    H   1.0     0.951012     0.068123     0.029946  Biso 1.000000     H
    H   1.0     0.045419     0.070798     0.973532  Biso 1.000000     H
    H   1.0     0.545342     0.070924     0.973725  Biso 1.000000     H
    H   1.0     0.233634     0.898061     0.636729  Biso 1.000000     H
    H   1.0     0.733513     0.898091     0.636584  Biso 1.000000     H
    H   1.0     0.348040     0.886180     0.544067  Biso 1.000000     H
    H   1.0     0.847788     0.886189     0.543837  Biso 1.000000     H
    H   1.0     0.386781     0.121947     0.553596  Biso 1.000000     H
    H   1.0     0.887111     0.121907     0.553685  Biso 1.000000     H
    H   1.0     0.266919     0.124957     0.643300  Biso 1.000000     H
    H   1.0     0.767452     0.124931     0.643513  Biso 1.000000     H
    H   1.0     0.432247     0.047904     0.449466  Biso 1.000000     H
    H   1.0     0.932300     0.047859     0.449400  Biso 1.000000     H
    H   1.0     0.429647     0.950460     0.451851  Biso 1.000000     H
    H   1.0     0.929719     0.950418     0.451819  Biso 1.000000     H
    H   1.0     0.486995     0.200311     0.408064  Biso 1.000000     H
    H   1.0     0.987711     0.200015     0.407081  Biso 1.000000     H
    H   1.0     0.382098     0.239804     0.499379  Biso 1.000000     H
    H   1.0     0.883401     0.239349     0.498807  Biso 1.000000     H
    H   1.0     0.213202     0.292665     0.464248  Biso 1.000000     H
    H   1.0     0.714425     0.292322     0.464235  Biso 1.000000     H
    H   1.0     0.156479     0.311556     0.338919  Biso 1.000000     H
    H   1.0     0.657031     0.311490     0.339042  Biso 1.000000     H
    H   1.0     0.172842     0.292643     0.220885  Biso 1.000000     H
    H   1.0     0.672734     0.292875     0.220883  Biso 1.000000     H
    H   1.0     0.265701     0.234636     0.192456  Biso 1.000000     H
    H   1.0     0.765209     0.234740     0.192104  Biso 1.000000     H
    H   1.0     0.441643     0.239525     0.221636  Biso 1.000000     H
    H   1.0     0.941341     0.239664     0.220774  Biso 1.000000     H
    H   1.0     0.024157     0.202951     0.289864  Biso 1.000000     H
    H   1.0     0.524114     0.203001     0.291009  Biso 1.000000     H
    H   1.0     0.119995     0.528692     0.257890  Biso 1.000000     H
    H   1.0     0.620175     0.528495     0.258090  Biso 1.000000     H
    H   1.0     0.248564     0.524831     0.358056  Biso 1.000000     H
    H   1.0     0.748793     0.524615     0.358195  Biso 1.000000     H
    H   1.0     0.038079     0.406924     0.471058  Biso 1.000000     H
    H   1.0     0.538365     0.406754     0.471302  Biso 1.000000     H
    H   1.0     0.416799     0.415011     0.363973  Biso 1.000000     H
    H   1.0     0.916559     0.415160     0.363701  Biso 1.000000     H
    H   1.0     0.200365     0.432148     0.529666  Biso 1.000000     H
    H   1.0     0.700614     0.431940     0.529864  Biso 1.000000     H
    H   1.0     0.294763     0.429130     0.473271  Biso 1.000000     H
    H   1.0     0.795026     0.428918     0.473472  Biso 1.000000     H
    H   1.0     0.483336     0.601965     0.137084  Biso 1.000000     H
    H   1.0     0.983680     0.601815     0.136744  Biso 1.000000     H
    H   1.0     0.098077     0.613695     0.044078  Biso 1.000000     H
    H   1.0     0.597644     0.613977     0.044396  Biso 1.000000     H
    H   1.0     0.136967     0.378065     0.053259  Biso 1.000000     H
    H   1.0     0.636893     0.378377     0.053492  Biso 1.000000     H
    H   1.0     0.017236     0.375057     0.143032  Biso 1.000000     H
    H   1.0     0.517090     0.375213     0.143215  Biso 1.000000     H
    H   1.0     0.182043     0.452125     0.949049  Biso 1.000000     H
    H   1.0     0.681801     0.452500     0.949312  Biso 1.000000     H
    H   1.0     0.180109     0.549530     0.952046  Biso 1.000000     H
    H   1.0     0.679820     0.549902     0.952314  Biso 1.000000     H
    H   1.0     0.261535     0.699433     0.093415  Biso 1.000000     H
    H   1.0     0.760435     0.699857     0.092345  Biso 1.000000     H
    H   1.0     0.365342     0.738785     0.001509  Biso 1.000000     H
    H   1.0     0.864017     0.739396     0.000376  Biso 1.000000     H
    H   1.0     0.033428     0.792341     0.034588  Biso 1.000000     H
    H   1.0     0.534531     0.792043     0.035808  Biso 1.000000     H
    H   1.0     0.091810     0.811457     0.159739  Biso 1.000000     H
    H   1.0     0.592582     0.811467     0.160957  Biso 1.000000     H
    H   1.0     0.076788     0.793073     0.277943  Biso 1.000000     H
    H   1.0     0.577306     0.793326     0.279159  Biso 1.000000     H
    H   1.0     0.485115     0.734946     0.308042  Biso 1.000000     H
    H   1.0     0.984431     0.734856     0.306863  Biso 1.000000     H
    H   1.0     0.308788     0.739634     0.279754  Biso 1.000000     H
    H   1.0     0.808152     0.739389     0.278723  Biso 1.000000     H
    H   1.0     0.225716     0.702542     0.210782  Biso 1.000000     H
    H   1.0     0.725032     0.702365     0.209745  Biso 1.000000     H
    H   1.0     0.130139     0.028488     0.242245  Biso 1.000000     H
    H   1.0     0.630011     0.028546     0.242164  Biso 1.000000     H
    H   1.0     0.001489     0.024722     0.142103  Biso 1.000000     H
    H   1.0     0.501406     0.024808     0.142003  Biso 1.000000     H
    H   1.0     0.211265     0.906650     0.028487  Biso 1.000000     H
    H   1.0     0.711102     0.906464     0.028508  Biso 1.000000     H
    H   1.0     0.332888     0.914805     0.135819  Biso 1.000000     H
    H   1.0     0.832674     0.914612     0.135883  Biso 1.000000     H
    H   1.0     0.048997     0.931856     0.970087  Biso 1.000000     H
    H   1.0     0.549138     0.931984     0.969984  Biso 1.000000     H
    H   1.0     0.454627     0.929060     0.026281  Biso 1.000000     H
    H   1.0     0.954588     0.929181     0.026499  Biso 1.000000     H
    H   1.0     0.266475     0.101887     0.363453  Biso 1.000000     H
    H   1.0     0.766387     0.101940     0.363263  Biso 1.000000     H
    H   1.0     0.152201     0.113791     0.456201  Biso 1.000000     H
    H   1.0     0.651986     0.113829     0.455927  Biso 1.000000     H
    H   1.0     0.112869     0.878074     0.446350  Biso 1.000000     H
    H   1.0     0.613236     0.878062     0.446414  Biso 1.000000     H
    H   1.0     0.232527     0.875048     0.356522  Biso 1.000000     H
    H   1.0     0.733100     0.875042     0.356714  Biso 1.000000     H
    H   1.0     0.067684     0.952124     0.550639  Biso 1.000000     H
    H   1.0     0.567772     0.952110     0.550537  Biso 1.000000     H
    H   1.0     0.070265     0.049565     0.548215  Biso 1.000000     H
    H   1.0     0.570374     0.049553     0.548151  Biso 1.000000     H
    C   1.0     0.211577     0.734219     0.698137  Biso 1.000000     C
    C   1.0     0.711829     0.734208     0.697870  Biso 1.000000     C
    C   1.0     0.117692     0.766654     0.678601  Biso 1.000000     C
    C   1.0     0.617977     0.766575     0.678062  Biso 1.000000     C
    C   1.0     0.085254     0.775376     0.607569  Biso 1.000000     C
    C   1.0     0.585873     0.775177     0.606968  Biso 1.000000     C
    C   1.0     0.144204     0.753955     0.556039  Biso 1.000000     C
    C   1.0     0.645109     0.753683     0.555633  Biso 1.000000     C
    C   1.0     0.238204     0.723784     0.575389  Biso 1.000000     C
    C   1.0     0.739065     0.723564     0.575252  Biso 1.000000     C
    C   1.0     0.270606     0.713693     0.645900  Biso 1.000000     C
    C   1.0     0.771144     0.713604     0.645827  Biso 1.000000     C
    C   1.0     0.246690     0.718499     0.773653  Biso 1.000000     C
    C   1.0     0.746593     0.718589     0.773456  Biso 1.000000     C
    C   1.0     0.195742     0.650534     0.801748  Biso 1.000000     C
    C   1.0     0.695640     0.650579     0.801449  Biso 1.000000     C
    C   1.0     0.054265     0.795174     0.732585  Biso 1.000000     C
    C   1.0     0.554229     0.795178     0.731817  Biso 1.000000     C
    C   1.0     0.083385     0.874220     0.756064  Biso 1.000000     C
    C   1.0     0.583273     0.874254     0.755196  Biso 1.000000     C
    C   1.0     0.395745     0.497454     0.693544  Biso 1.000000     C
    C   1.0     0.895941     0.497260     0.693752  Biso 1.000000     C
    C   1.0     0.323530     0.500385     0.636797  Biso 1.000000     C
    C   1.0     0.823757     0.500189     0.636988  Biso 1.000000     C
    C   1.0     0.345449     0.534557     0.575255  Biso 1.000000     C
    C   1.0     0.845704     0.534365     0.575458  Biso 1.000000     C
    C   1.0     0.440664     0.565252     0.574918  Biso 1.000000     C
    C   1.0     0.940915     0.565070     0.575149  Biso 1.000000     C
    C   1.0     0.009384     0.560437     0.634257  Biso 1.000000     C
    C   1.0     0.509140     0.560611     0.634006  Biso 1.000000     C
    C   1.0     0.268691     0.538475     0.512654  Biso 1.000000     C
    C   1.0     0.768946     0.538265     0.512857  Biso 1.000000     C
    C   1.0     0.480063     0.445972     0.882672  Biso 1.000000     C
    C   1.0     0.979709     0.446158     0.882960  Biso 1.000000     C
    C   1.0     0.416377     0.440025     0.934216  Biso 1.000000     C
    C   1.0     0.916005     0.440286     0.934498  Biso 1.000000     C
    C   1.0     0.373345     0.503313     0.959525  Biso 1.000000     C
    C   1.0     0.873068     0.503625     0.959782  Biso 1.000000     C
    C   1.0     0.395652     0.570722     0.929609  Biso 1.000000     C
    C   1.0     0.895470     0.570999     0.929839  Biso 1.000000     C
    C   1.0     0.460576     0.572960     0.878818  Biso 1.000000     C
    C   1.0     0.960382     0.573153     0.879036  Biso 1.000000     C
    C   1.0     0.305178     0.499704     0.015747  Biso 1.000000     C
    C   1.0     0.804913     0.500084     0.016014  Biso 1.000000     C
    C   1.0     0.039399     0.234308     0.802805  Biso 1.000000     C
    C   1.0     0.538624     0.234353     0.801646  Biso 1.000000     C
    C   1.0     0.133458     0.266825     0.822120  Biso 1.000000     C
    C   1.0     0.632625     0.266950     0.820990  Biso 1.000000     C
    C   1.0     0.166508     0.275541     0.893096  Biso 1.000000     C
    C   1.0     0.665481     0.275878     0.891977  Biso 1.000000     C
    C   1.0     0.107990     0.254033     0.944801  Biso 1.000000     C
    C   1.0     0.606848     0.254468     0.943654  Biso 1.000000     C
    C   1.0     0.013780     0.223841     0.925689  Biso 1.000000     C
    C   1.0     0.512734     0.224129     0.924504  Biso 1.000000     C
    C   1.0     0.479903     0.213867     0.854029  Biso 1.000000     C
    C   1.0     0.980750     0.213761     0.855220  Biso 1.000000     C
    C   1.0     0.503178     0.218331     0.726165  Biso 1.000000     C
    C   1.0     0.000000     0.218423     0.727326  Biso 1.000000     C
    C   1.0     0.054519     0.150481     0.698956  Biso 1.000000     C
    C   1.0     0.554241     0.150469     0.697894  Biso 1.000000     C
    C   1.0     0.196421     0.295472     0.767979  Biso 1.000000     C
    C   1.0     0.695766     0.295363     0.766844  Biso 1.000000     C
    C   1.0     0.166937     0.374372     0.744819  Biso 1.000000     C
    C   1.0     0.666620     0.374274     0.743466  Biso 1.000000     C
    C   1.0     0.354186     0.997447     0.806337  Biso 1.000000     C
    C   1.0     0.854049     0.997450     0.806305  Biso 1.000000     C
    C   1.0     0.426394     0.000000     0.863114  Biso 1.000000     C
    C   1.0     0.926294     0.000000     0.863065  Biso 1.000000     C
    C   1.0     0.404659     0.034589     0.924782  Biso 1.000000     C
    C   1.0     0.904590     0.034530     0.924773  Biso 1.000000     C
    C   1.0     0.309662     0.065461     0.925200  Biso 1.000000     C
    C   1.0     0.809547     0.065328     0.925232  Biso 1.000000     C
    C   1.0     0.241182     0.060879     0.866077  Biso 1.000000     C
    C   1.0     0.741027     0.060748     0.866119  Biso 1.000000     C
    C   1.0     0.481396     0.038408     0.987435  Biso 1.000000     C
    C   1.0     0.981434     0.038395     0.987379  Biso 1.000000     C
    C   1.0     0.270149     0.946088     0.617113  Biso 1.000000     C
    C   1.0     0.770141     0.946090     0.617017  Biso 1.000000     C
    C   1.0     0.333885     0.940212     0.565580  Biso 1.000000     C
    C   1.0     0.833776     0.940207     0.565431  Biso 1.000000     C
    C   1.0     0.376807     0.000000     0.540391  Biso 1.000000     C
    C   1.0     0.876785     0.000000     0.540312  Biso 1.000000     C
    C   1.0     0.354328     0.071007     0.570427  Biso 1.000000     C
    C   1.0     0.854539     0.070985     0.570454  Biso 1.000000     C
    C   1.0     0.289373     0.073169     0.621209  Biso 1.000000     C
    C   1.0     0.789692     0.073149     0.621299  Biso 1.000000     C
    C   1.0     0.444953     0.000000     0.484124  Biso 1.000000     C
    C   1.0     0.944959     0.999984     0.484082  Biso 1.000000     C
    C   1.0     0.288169     0.265771     0.302177  Biso 1.000000     C
    C   1.0     0.788423     0.265747     0.301829  Biso 1.000000     C
    C   1.0     0.382020     0.233408     0.321994  Biso 1.000000     C
    C   1.0     0.882314     0.233305     0.321328  Biso 1.000000     C
    C   1.0     0.414116     0.224815     0.393091  Biso 1.000000     C
    C   1.0     0.914796     0.224566     0.392352  Biso 1.000000     C
    C   1.0     0.354871     0.246314     0.444419  Biso 1.000000     C
    C   1.0     0.855887     0.245980     0.443909  Biso 1.000000     C
    C   1.0     0.260913     0.276426     0.424791  Biso 1.000000     C
    C   1.0     0.761882     0.276161     0.424595  Biso 1.000000     C
    C   1.0     0.228843     0.286377     0.354213  Biso 1.000000     C
    C   1.0     0.729435     0.286266     0.354092  Biso 1.000000     C
    C   1.0     0.253415     0.281384     0.226589  Biso 1.000000     C
    C   1.0     0.753269     0.281486     0.226323  Biso 1.000000     C
    C   1.0     0.304361     0.349398     0.198598  Biso 1.000000     C
    C   1.0     0.804229     0.349444     0.198224  Biso 1.000000     C
    C   1.0     0.445778     0.204800     0.268248  Biso 1.000000     C
    C   1.0     0.945706     0.204813     0.267309  Biso 1.000000     C
    C   1.0     0.416730     0.125725     0.244870  Biso 1.000000     C
    C   1.0     0.916592     0.125774     0.243794  Biso 1.000000     C
    C   1.0     0.104036     0.502726     0.306277  Biso 1.000000     C
    C   1.0     0.604241     0.502533     0.306486  Biso 1.000000     C
    C   1.0     0.176220     0.499799     0.363042  Biso 1.000000     C
    C   1.0     0.676458     0.499601     0.363232  Biso 1.000000     C
    C   1.0     0.154277     0.465617     0.424570  Biso 1.000000     C
    C   1.0     0.654542     0.465421     0.424771  Biso 1.000000     C
    C   1.0     0.059069     0.434905     0.424877  Biso 1.000000     C
    C   1.0     0.559329     0.434722     0.425107  Biso 1.000000     C
    C   1.0     0.490852     0.439365     0.366020  Biso 1.000000     C
    C   1.0     0.990601     0.439536     0.365768  Biso 1.000000     C
    C   1.0     0.231037     0.461716     0.487170  Biso 1.000000     C
    C   1.0     0.731300     0.461504     0.487371  Biso 1.000000     C
    C   1.0     0.020281     0.553825     0.117067  Biso 1.000000     C
    C   1.0     0.519927     0.554006     0.117357  Biso 1.000000     C
    C   1.0     0.083984     0.559698     0.065528  Biso 1.000000     C
    C   1.0     0.583614     0.559954     0.065813  Biso 1.000000     C
    C   1.0     0.126923     0.496359     0.040245  Biso 1.000000     C
    C   1.0     0.626645     0.496667     0.040502  Biso 1.000000     C
    C   1.0     0.104526     0.428985     0.070189  Biso 1.000000     C
    C   1.0     0.604337     0.429257     0.070416  Biso 1.000000     C
    C   1.0     0.039615     0.426830     0.120993  Biso 1.000000     C
    C   1.0     0.539412     0.427018     0.121207  Biso 1.000000     C
    C   1.0     0.195078     0.499902     0.984013  Biso 1.000000     C
    C   1.0     0.694812     0.500276     0.984281  Biso 1.000000     C
    C   1.0     0.461370     0.765630     0.198386  Biso 1.000000     C
    C   1.0     0.960600     0.765665     0.197229  Biso 1.000000     C
    C   1.0     0.367371     0.733032     0.179034  Biso 1.000000     C
    C   1.0     0.866539     0.733153     0.177911  Biso 1.000000     C
    C   1.0     0.334524     0.724109     0.108045  Biso 1.000000     C
    C   1.0     0.833490     0.724444     0.106934  Biso 1.000000     C
    C   1.0     0.393164     0.745525     0.056375  Biso 1.000000     C
    C   1.0     0.892010     0.745954     0.055232  Biso 1.000000     C
    C   1.0     0.487274     0.775865     0.075532  Biso 1.000000     C
    C   1.0     0.986222     0.776142     0.074346  Biso 1.000000     C
    C   1.0     0.019251     0.786215     0.144816  Biso 1.000000     C
    C   1.0     0.520096     0.786122     0.146009  Biso 1.000000     C
    C   1.0    -0.003751     0.781547     0.272709  Biso 1.000000     C
    C   1.0     0.496808     0.781645     0.273870  Biso 1.000000     C
    C   1.0     0.445752     0.849509     0.302144  Biso 1.000000     C
    C   1.0     0.945476     0.849492     0.301073  Biso 1.000000     C
    C   1.0     0.304222     0.704615     0.233174  Biso 1.000000     C
    C   1.0     0.803572     0.704506     0.232050  Biso 1.000000     C
    C   1.0     0.333371     0.625705     0.256553  Biso 1.000000     C
    C   1.0     0.833056     0.625607     0.255211  Biso 1.000000     C
    C   1.0     0.145947     0.002524     0.193730  Biso 1.000000     C
    C   1.0     0.645791     0.002521     0.193671  Biso 1.000000     C
    C   1.0     0.073705    -0.000344     0.136969  Biso 1.000000     C
    C   1.0     0.573582    -0.000330     0.136894  Biso 1.000000     C
    C   1.0     0.095417     0.965448     0.075260  Biso 1.000000     C
    C   1.0     0.595311     0.965391     0.075223  Biso 1.000000     C
    C   1.0     0.190463     0.934656     0.074802  Biso 1.000000     C
    C   1.0     0.690305     0.934514     0.074801  Biso 1.000000     C
    C   1.0     0.258980     0.939238     0.133916  Biso 1.000000     C
    C   1.0     0.758788     0.939087     0.133923  Biso 1.000000     C
    C   1.0     0.018574     0.961585     0.012653  Biso 1.000000     C
    C   1.0     0.518573     0.961576     0.012571  Biso 1.000000     C
    C   1.0     0.229845     0.053888     0.383020  Biso 1.000000     C
    C   1.0     0.729876     0.053914     0.382885  Biso 1.000000     C
    C   1.0     0.166210     0.059772     0.434605  Biso 1.000000     C
    C   1.0     0.666141     0.059795     0.434418  Biso 1.000000     C
    C   1.0     0.123199    -0.003578     0.459725  Biso 1.000000     C
    C   1.0     0.623215    -0.003560     0.459612  Biso 1.000000     C
    C   1.0     0.145442     0.928995     0.429582  Biso 1.000000     C
    C   1.0     0.645692     0.929001     0.429581  Biso 1.000000     C
    C   1.0     0.210289     0.926830     0.378737  Biso 1.000000     C
    C   1.0     0.710648     0.926833     0.378799  Biso 1.000000     C
    C   1.0     0.055026    -0.000003     0.515954  Biso 1.000000     C
    C   1.0     0.555068     0.000000     0.515878  Biso 1.000000     C
    N   1.0     0.487634     0.526588     0.692740  Biso 1.000000     N
    N   1.0     0.987832     0.526405     0.692981  Biso 1.000000     N
    N   1.0     0.502955     0.511618     0.855523  Biso 1.000000     N
    N   1.0     0.000000     0.511766     0.855772  Biso 1.000000     N
    N   1.0     0.262480     0.026752     0.807226  Biso 1.000000     N
    N   1.0     0.762299     0.026687     0.807225  Biso 1.000000     N
    N   1.0     0.247099     0.011755     0.644383  Biso 1.000000     N
    N   1.0     0.747319     0.011748     0.644399  Biso 1.000000     N
    N   1.0     0.012149     0.473573     0.307046  Biso 1.000000     N
    N   1.0     0.512355     0.473394     0.307288  Biso 1.000000     N
    N   1.0    -0.002685     0.488216     0.144256  Biso 1.000000     N
    N   1.0     0.497034     0.488359     0.144504  Biso 1.000000     N
    N   1.0     0.237701     0.973293     0.192811  Biso 1.000000     N
    N   1.0     0.737494     0.973210     0.192777  Biso 1.000000     N
    N   1.0     0.252665     0.988230     0.355637  Biso 1.000000     N
    N   1.0     0.752924     0.988244     0.355621  Biso 1.000000     N
    O   1.0     0.182748     0.596457     0.757181  Biso 1.000000     O
    O   1.0     0.682666     0.596553     0.756821  Biso 1.000000     O
    O   1.0     0.171099     0.650068     0.861977  Biso 1.000000     O
    O   1.0     0.670973     0.650038     0.861671  Biso 1.000000     O
    O   1.0     0.091922     0.918933     0.704220  Biso 1.000000     O
    O   1.0     0.591832     0.918947     0.703342  Biso 1.000000     O
    O   1.0     0.095998     0.890845     0.818872  Biso 1.000000     O
    O   1.0     0.595933     0.890953     0.817986  Biso 1.000000     O
    O   1.0     0.067461     0.096470     0.743353  Biso 1.000000     O
    O   1.0     0.567260     0.096538     0.742374  Biso 1.000000     O
    O   1.0     0.079087     0.150007     0.638705  Biso 1.000000     O
    O   1.0     0.578910     0.150008     0.637676  Biso 1.000000     O
    O   1.0     0.158173     0.419091     0.796792  Biso 1.000000     O
    O   1.0     0.658084     0.419099     0.795387  Biso 1.000000     O
    O   1.0     0.154167     0.390945     0.682078  Biso 1.000000     O
    O   1.0     0.654026     0.390726     0.680695  Biso 1.000000     O
    O   1.0     0.317333     0.403424     0.243226  Biso 1.000000     O
    O   1.0     0.817232     0.403519     0.242794  Biso 1.000000     O
    O   1.0     0.329025     0.349942     0.138375  Biso 1.000000     O
    O   1.0     0.828872     0.349907     0.137995  Biso 1.000000     O
    O   1.0     0.408166     0.081031     0.296722  Biso 1.000000     O
    O   1.0     0.908064     0.081047     0.295626  Biso 1.000000     O
    O   1.0     0.404067     0.109026     0.182079  Biso 1.000000     O
    O   1.0     0.904000     0.109171     0.180981  Biso 1.000000     O
    O   1.0     0.432735     0.903441     0.257665  Biso 1.000000     O
    O   1.0     0.932534     0.903498     0.256671  Biso 1.000000     O
    O   1.0     0.421089     0.849971     0.362364  Biso 1.000000     O
    O   1.0     0.920908     0.849972     0.361324  Biso 1.000000     O
    O   1.0     0.341908     0.580879     0.204633  Biso 1.000000     O
    O   1.0     0.841821     0.580889     0.203237  Biso 1.000000     O
    O   1.0     0.345966     0.609252     0.319325  Biso 1.000000     O
    O   1.0     0.845825     0.609034     0.317952  Biso 1.000000     O
   Zn   1.0     0.096009     0.515352     0.777605  Biso 1.000000    Zn
   Zn   1.0     0.595970     0.515425     0.777253  Biso 1.000000    Zn
   Zn   1.0     0.154063     0.015441     0.722678  Biso 1.000000    Zn
   Zn   1.0     0.654043     0.015396     0.722528  Biso 1.000000    Zn
   Zn   1.0     0.404021     0.484553     0.222775  Biso 1.000000    Zn
   Zn   1.0     0.903984     0.484627     0.222417  Biso 1.000000    Zn
   Zn   1.0     0.345952     0.984584     0.277510  Biso 1.000000    Zn
   Zn   1.0     0.845926     0.984533     0.277311  Biso 1.000000    Zn
