#======================================================================

# CRYSTAL DATA

#----------------------------------------------------------------------

data_VESTA_phase_1


_pd_phase_name                         MOF
_cell_length_a                         12.41800
_cell_length_b                         12.72500
_cell_length_c                         12.72900
_cell_angle_alpha                      76.27500
_cell_angle_beta                       60.83900
_cell_angle_gamma                      60.83800
_symmetry_space_group_name_H-M         "P 1"
_symmetry_Int_Tables_number            1

loop_
_symmetry_equiv_pos_as_xyz
   "x, y, z"

loop_
   _atom_site_label
   _atom_site_occupancy
   _atom_site_fract_x
   _atom_site_fract_y
   _atom_site_fract_z
   _atom_site_adp_type
   _atom_site_B_iso_or_equiv
   _atom_site_type_symbol
    H   1.0     0.259361     0.446570     0.686356  Biso 1.000000     H
    H   1.0     0.391688     0.554584     0.313456  Biso 1.000000     H
    H   1.0     0.195966     0.813632     0.945416  Biso 1.000000     H
    H   1.0     0.955835     0.186693     0.053616  Biso 1.000000     H
    H   1.0     0.861758     0.185265     0.938566  Biso 1.000000     H
    H   1.0     0.985662     0.815167     0.060484  Biso 1.000000     H
    H   1.0     0.296125     0.439774     0.314903  Biso 1.000000     H
    H   1.0     0.050640     0.561531     0.684961  Biso 1.000000     H
    H   1.0     0.136346     0.527456     0.920184  Biso 1.000000     H
    H   1.0     0.583202     0.473191     0.079793  Biso 1.000000     H
    H   1.0     0.307018     0.580205     0.026935  Biso 1.000000     H
    H   1.0     0.912919     0.420113     0.973103  Biso 1.000000     H
    H   1.0     0.625273     0.499777     0.499678  Biso 1.000000     H
    H   1.0     0.374986    -0.000249     0.000291  Biso 1.000000     H
    H   1.0     0.624748     0.000496     0.000318  Biso 1.000000     H
    H   1.0     0.875071     0.499952     0.500307  Biso 1.000000     H
    C   1.0     0.329560     0.472344     0.604377  Biso 1.000000     C
    C   1.0     0.440116     0.475361     0.605691  Biso 1.000000     C
    C   1.0     0.451324     0.454104     0.721886  Biso 1.000000     C
    C   1.0     0.405862     0.528564     0.395376  Biso 1.000000     C
    C   1.0     0.521055     0.525046     0.393921  Biso 1.000000     C
    C   1.0     0.627108     0.546283     0.277724  Biso 1.000000     C
    C   1.0     0.184209     0.895551     0.971450  Biso 1.000000     C
    C   1.0     0.295922     0.894049     0.974950  Biso 1.000000     C
    C   1.0     0.423204     0.777827     0.953691  Biso 1.000000     C
    C   1.0     0.051805     0.104662     0.027771  Biso 1.000000     C
    C   1.0     0.165426     0.105926     0.024721  Biso 1.000000     C
    C   1.0     0.155423     0.222135     0.046045  Biso 1.000000     C
    C   1.0     0.846817     0.103697     0.967035  Biso 1.000000     C
    C   1.0     0.731961     0.104753     0.970345  Biso 1.000000     C
    C   1.0     0.627553     0.219023     0.945666  Biso 1.000000     C
    C   1.0     0.917538     0.896813     0.032255  Biso 1.000000     C
    C   1.0     0.806732     0.895883     0.029429  Biso 1.000000     C
    C   1.0     0.791849     0.781573     0.054129  Biso 1.000000     C
    C   1.0     0.199824     0.467998     0.396558  Biso 1.000000     C
    C   1.0     0.086155     0.470877     0.395662  Biso 1.000000     C
    C   1.0     0.095962     0.446212     0.281356  Biso 1.000000     C
    C   1.0     0.064086     0.533114     0.603405  Biso 1.000000     C
    C   1.0     0.952471     0.529841     0.604496  Biso 1.000000     C
    C   1.0     0.823510     0.554405     0.718801  Biso 1.000000     C
    C   1.0     0.309504     0.500525     0.499899  Biso 1.000000     C
    C   1.0     0.537518     0.500016     0.499750  Biso 1.000000     C
    C   1.0     0.059823     0.000184    -0.000427  Biso 1.000000     C
    C   1.0     0.287435    -0.000070     0.000015  Biso 1.000000     C
    C   1.0     0.940268     0.000258    -0.000399  Biso 1.000000     C
    C   1.0     0.712491     0.000395     0.000073  Biso 1.000000     C
    C   1.0     0.190005     0.500594     0.499939  Biso 1.000000     C
    C   1.0     0.962588     0.500213     0.500151  Biso 1.000000     C
    O   1.0     0.387222     0.398018     0.804135  Biso 1.000000     O
    O   1.0     0.522259     0.496670     0.728195  Biso 1.000000     O
    O   1.0     0.588812     0.603005     0.195802  Biso 1.000000     O
    O   1.0     0.747059     0.503225     0.271101  Biso 1.000000     O
    O   1.0     0.441664     0.695841     0.896928  Biso 1.000000     O
    O   1.0     0.500090     0.771234     0.996785  Biso 1.000000     O
    O   1.0     0.035294     0.304200     0.102542  Biso 1.000000     O
    O   1.0     0.268813     0.228638     0.003165  Biso 1.000000     O
    O   1.0     0.667279     0.297233     0.880064  Biso 1.000000     O
    O   1.0     0.505949     0.227176     0.995467  Biso 1.000000     O
    O   1.0     0.845021     0.703032     0.119013  Biso 1.000000     O
    O   1.0     0.727387     0.773702     0.004955  Biso 1.000000     O
    O   1.0     0.213985     0.381269     0.202862  Biso 1.000000     O
    O   1.0     0.982355     0.495440     0.273457  Biso 1.000000     O
    O   1.0     0.797917     0.619646     0.797233  Biso 1.000000     O
    O   1.0     0.751548     0.504797     0.726769  Biso 1.000000     O
    O   1.0     0.127045     0.519467     0.000000  Biso 1.000000     O
    O   1.0     0.648254     0.480705    -0.001884  Biso 1.000000     O
    O   1.0     0.379287     0.498306     0.019145  Biso 1.000000     O
    O   1.0     0.896121     0.501848     0.980850  Biso 1.000000     O
   In   1.0     0.314576     0.374316     0.003733  Biso 1.000000    In
   In   1.0     0.692152     0.626158    -0.003652  Biso 1.000000    In
   In   1.0     0.568570     0.496315     0.873689  Biso 1.000000    In
   In   1.0     0.938558     0.503819     0.125969  Biso 1.000000    In
