#======================================================================

# CRYSTAL DATA

#----------------------------------------------------------------------

data_VESTA_phase_1


_pd_phase_name                         MOF
_cell_length_a                         16.65600
_cell_length_b                         16.66200
_cell_length_c                         16.59900
_cell_angle_alpha                      89.66600
_cell_angle_beta                       90.20800
_cell_angle_gamma                      89.99500
_symmetry_space_group_name_H-M         "P 1"
_symmetry_Int_Tables_number            1

loop_
_symmetry_equiv_pos_as_xyz
   "x, y, z"

loop_
   _atom_site_label
   _atom_site_occupancy
   _atom_site_fract_x
   _atom_site_fract_y
   _atom_site_fract_z
   _atom_site_adp_type
   _atom_site_B_iso_or_equiv
   _atom_site_type_symbol
    H   1.0     0.420552     0.238340     0.587910  Biso 1.000000     H
    H   1.0     0.077921     0.263782     0.588361  Biso 1.000000     H
    H   1.0     0.078650     0.236910     0.912221  Biso 1.000000     H
    H   1.0     0.421222     0.262394     0.911497  Biso 1.000000     H
    H   1.0     0.587768     0.422040     0.235936  Biso 1.000000     H
    H   1.0     0.587900     0.078461     0.263150  Biso 1.000000     H
    H   1.0     0.911040     0.078345     0.238028  Biso 1.000000     H
    H   1.0     0.911182     0.422140     0.262811  Biso 1.000000     H
    H   1.0     0.236996     0.589298     0.421728  Biso 1.000000     H
    H   1.0     0.261852     0.588373     0.079356  Biso 1.000000     H
    H   1.0     0.236210     0.911344     0.078321  Biso 1.000000     H
    H   1.0     0.262609     0.912316     0.420531  Biso 1.000000     H
    H   1.0     0.738296     0.920488     0.412343  Biso 1.000000     H
    H   1.0     0.763777     0.577821     0.411443  Biso 1.000000     H
    H   1.0     0.737417     0.578979     0.087598  Biso 1.000000     H
    H   1.0     0.762936     0.921586     0.088663  Biso 1.000000     H
    H   1.0     0.922257     0.087922     0.764139  Biso 1.000000     H
    H   1.0     0.578640     0.088109     0.737328  Biso 1.000000     H
    H   1.0     0.578560     0.411205     0.761963  Biso 1.000000     H
    H   1.0     0.922348     0.411349     0.736708  Biso 1.000000     H
    H   1.0     0.089365     0.737455     0.578489  Biso 1.000000     H
    H   1.0     0.088787     0.761833     0.920851  Biso 1.000000     H
    H   1.0     0.411732     0.736236     0.921443  Biso 1.000000     H
    H   1.0     0.412331     0.762992     0.579282  Biso 1.000000     H
    H   1.0     0.579478     0.761640     0.412098  Biso 1.000000     H
    H   1.0     0.922108     0.736198     0.411646  Biso 1.000000     H
    H   1.0     0.921379     0.763071     0.087788  Biso 1.000000     H
    H   1.0     0.578808     0.737584     0.088512  Biso 1.000000     H
    H   1.0     0.412261     0.577941     0.764074  Biso 1.000000     H
    H   1.0     0.412129     0.921518     0.736857  Biso 1.000000     H
    H   1.0     0.088990     0.921635     0.761980  Biso 1.000000     H
    H   1.0     0.088848     0.577840     0.737197  Biso 1.000000     H
    H   1.0     0.763034     0.410681     0.578281  Biso 1.000000     H
    H   1.0     0.738177     0.411607     0.920651  Biso 1.000000     H
    H   1.0     0.763820     0.088637     0.921687  Biso 1.000000     H
    H   1.0     0.737420     0.087665     0.579477  Biso 1.000000     H
    H   1.0     0.261734     0.079492     0.587665  Biso 1.000000     H
    H   1.0     0.236253     0.422160     0.588565  Biso 1.000000     H
    H   1.0     0.262611     0.421003     0.912411  Biso 1.000000     H
    H   1.0     0.237094     0.078393     0.911346  Biso 1.000000     H
    H   1.0     0.077772     0.912059     0.235870  Biso 1.000000     H
    H   1.0     0.421389     0.911871     0.262681  Biso 1.000000     H
    H   1.0     0.421470     0.588774     0.238047  Biso 1.000000     H
    H   1.0     0.077681     0.588631     0.263299  Biso 1.000000     H
    H   1.0     0.910665     0.262525     0.421519  Biso 1.000000     H
    H   1.0     0.911243     0.238148     0.079157  Biso 1.000000     H
    H   1.0     0.588296     0.263743     0.078565  Biso 1.000000     H
    H   1.0     0.587697     0.236989     0.420727  Biso 1.000000     H
    H   1.0     0.307679     0.310423     0.512816  Biso 1.000000     H
    H   1.0     0.189679     0.192371     0.512513  Biso 1.000000     H
    H   1.0     0.190857     0.308527     0.987939  Biso 1.000000     H
    H   1.0     0.308793     0.190541     0.986707  Biso 1.000000     H
    H   1.0     0.512408     0.309582     0.307923  Biso 1.000000     H
    H   1.0     0.512904     0.191361     0.190923  Biso 1.000000     H
    H   1.0     0.986003     0.190828     0.309552  Biso 1.000000     H
    H   1.0     0.986501     0.310052     0.191542  Biso 1.000000     H
    H   1.0     0.308784     0.513934     0.309831  Biso 1.000000     H
    H   1.0     0.189728     0.513188     0.191964  Biso 1.000000     H
    H   1.0     0.308442     0.986741     0.190455  Biso 1.000000     H
    H   1.0     0.190036     0.987528     0.307674  Biso 1.000000     H
    H   1.0     0.810349     0.807607     0.487494  Biso 1.000000     H
    H   1.0     0.692352     0.689559     0.487191  Biso 1.000000     H
    H   1.0     0.809172     0.691454     0.012070  Biso 1.000000     H
    H   1.0     0.691237     0.809438     0.013302  Biso 1.000000     H
    H   1.0     0.809991     0.012454     0.692336  Biso 1.000000     H
    H   1.0     0.691587     0.013239     0.809553  Biso 1.000000     H
    H   1.0     0.691246     0.486045     0.690178  Biso 1.000000     H
    H   1.0     0.810301     0.486791     0.808043  Biso 1.000000     H
    H   1.0     0.014028     0.809150     0.690458  Biso 1.000000     H
    H   1.0     0.013528     0.689929     0.808466  Biso 1.000000     H
    H   1.0     0.487125     0.808618     0.809083  Biso 1.000000     H
    H   1.0     0.487621     0.690399     0.692086  Biso 1.000000     H
    C   1.0     0.388235     0.289073     0.613513  Biso 1.000000     C
    C   1.0     0.110467     0.212644     0.613686  Biso 1.000000     C
    C   1.0     0.111086     0.287904     0.886706  Biso 1.000000     C
    C   1.0     0.388824     0.211501     0.886097  Biso 1.000000     C
    C   1.0     0.613094     0.389375     0.287211  Biso 1.000000     C
    C   1.0     0.613263     0.111059     0.212040  Biso 1.000000     C
    C   1.0     0.885535     0.110828     0.288773  Biso 1.000000     C
    C   1.0     0.885710     0.389581     0.211915  Biso 1.000000     C
    C   1.0     0.288048     0.614543     0.389282  Biso 1.000000     C
    C   1.0     0.211051     0.613929     0.111666  Biso 1.000000     C
    C   1.0     0.287503     0.886200     0.110832  Biso 1.000000     C
    C   1.0     0.211572     0.886862     0.388159  Biso 1.000000     C
    C   1.0     0.789032     0.888169     0.386688  Biso 1.000000     C
    C   1.0     0.712632     0.610368     0.386154  Biso 1.000000     C
    C   1.0     0.788318     0.611367     0.113199  Biso 1.000000     C
    C   1.0     0.711936     0.889138     0.113989  Biso 1.000000     C
    C   1.0     0.889576     0.113244     0.712883  Biso 1.000000     C
    C   1.0     0.611196     0.113499     0.788329  Biso 1.000000     C
    C   1.0     0.611046     0.385717     0.711194  Biso 1.000000     C
    C   1.0     0.889719     0.385924     0.787712  Biso 1.000000     C
    C   1.0     0.114698     0.788382     0.610876  Biso 1.000000     C
    C   1.0     0.114297     0.711045     0.888559  Biso 1.000000     C
    C   1.0     0.386550     0.787533     0.888937  Biso 1.000000     C
    C   1.0     0.386962     0.711849     0.611697  Biso 1.000000     C
    C   1.0     0.611796     0.710909     0.386495  Biso 1.000000     C
    C   1.0     0.889562     0.787336     0.386321  Biso 1.000000     C
    C   1.0     0.888943     0.712076     0.113302  Biso 1.000000     C
    C   1.0     0.611206     0.788479     0.113911  Biso 1.000000     C
    C   1.0     0.386936     0.610606     0.712797  Biso 1.000000     C
    C   1.0     0.386766     0.888920     0.787968  Biso 1.000000     C
    C   1.0     0.114495     0.889151     0.711236  Biso 1.000000     C
    C   1.0     0.114319     0.610400     0.788093  Biso 1.000000     C
    C   1.0     0.711982     0.385437     0.610726  Biso 1.000000     C
    C   1.0     0.788979     0.386052     0.888342  Biso 1.000000     C
    C   1.0     0.712526     0.113780     0.889176  Biso 1.000000     C
    C   1.0     0.788456     0.113120     0.611850  Biso 1.000000     C
    C   1.0     0.210997     0.111810     0.613319  Biso 1.000000     C
    C   1.0     0.287398     0.389613     0.613853  Biso 1.000000     C
    C   1.0     0.211711     0.388613     0.886809  Biso 1.000000     C
    C   1.0     0.288094     0.110842     0.886019  Biso 1.000000     C
    C   1.0     0.110453     0.886737     0.287126  Biso 1.000000     C
    C   1.0     0.388834     0.886482     0.211680  Biso 1.000000     C
    C   1.0     0.388984     0.614263     0.288814  Biso 1.000000     C
    C   1.0     0.110310     0.614056     0.212296  Biso 1.000000     C
    C   1.0     0.885332     0.211598     0.389133  Biso 1.000000     C
    C   1.0     0.885733     0.288935     0.111449  Biso 1.000000     C
    C   1.0     0.613480     0.212447     0.111071  Biso 1.000000     C
    C   1.0     0.613067     0.288131     0.388312  Biso 1.000000     C
    C   1.0     0.375374     0.375495     0.727195  Biso 1.000000     C
    C   1.0     0.326201     0.328222     0.572926  Biso 1.000000     C
    C   1.0     0.124550     0.124667     0.727174  Biso 1.000000     C
    C   1.0     0.171866     0.173848     0.572697  Biso 1.000000     C
    C   1.0     0.124623     0.375346     0.772840  Biso 1.000000     C
    C   1.0     0.172748     0.326797     0.927635  Biso 1.000000     C
    C   1.0     0.375495     0.124478     0.772831  Biso 1.000000     C
    C   1.0     0.327033     0.172477     0.926726  Biso 1.000000     C
    C   1.0     0.726138     0.375454     0.375270  Biso 1.000000     C
    C   1.0     0.572398     0.327548     0.326292  Biso 1.000000     C
    C   1.0     0.726198     0.124577     0.124615  Biso 1.000000     C
    C   1.0     0.572774     0.173141     0.172840  Biso 1.000000     C
    C   1.0     0.772132     0.124379     0.375575  Biso 1.000000     C
    C   1.0     0.926053     0.172643     0.327615  Biso 1.000000     C
    C   1.0     0.772169     0.375635     0.124517  Biso 1.000000     C
    C   1.0     0.926426     0.327993     0.173206  Biso 1.000000     C
    C   1.0     0.375572     0.727492     0.375548  Biso 1.000000     C
    C   1.0     0.327053     0.573816     0.327799  Biso 1.000000     C
    C   1.0     0.124427     0.727518     0.124616  Biso 1.000000     C
    C   1.0     0.171869     0.573271     0.173544  Biso 1.000000     C
    C   1.0     0.375460     0.773566     0.124533  Biso 1.000000     C
    C   1.0     0.326732     0.926909     0.172472  Biso 1.000000     C
    C   1.0     0.124506     0.773636     0.375275  Biso 1.000000     C
    C   1.0     0.172158     0.927502     0.326119  Biso 1.000000     C
    C   1.0     0.875480     0.875313     0.272834  Biso 1.000000     C
    C   1.0     0.828163     0.826131     0.427310  Biso 1.000000     C
    C   1.0     0.624656     0.624485     0.272813  Biso 1.000000     C
    C   1.0     0.673829     0.671759     0.427083  Biso 1.000000     C
    C   1.0     0.875405     0.624636     0.227170  Biso 1.000000     C
    C   1.0     0.827281     0.673184     0.072374  Biso 1.000000     C
    C   1.0     0.624536     0.875501     0.227178  Biso 1.000000     C
    C   1.0     0.672997     0.827502     0.073283  Biso 1.000000     C
    C   1.0     0.875524     0.226345     0.624732  Biso 1.000000     C
    C   1.0     0.827871     0.072479     0.673890  Biso 1.000000     C
    C   1.0     0.624571     0.226415     0.875474  Biso 1.000000     C
    C   1.0     0.673297     0.073071     0.827536  Biso 1.000000     C
    C   1.0     0.624458     0.272487     0.624461  Biso 1.000000     C
    C   1.0     0.672977     0.426163     0.672210  Biso 1.000000     C
    C   1.0     0.875602     0.272462     0.875391  Biso 1.000000     C
    C   1.0     0.828161     0.426709     0.826464  Biso 1.000000     C
    C   1.0     0.227897     0.875601     0.624433  Biso 1.000000     C
    C   1.0     0.073977     0.827336     0.672394  Biso 1.000000     C
    C   1.0     0.227860     0.624346     0.875491  Biso 1.000000     C
    C   1.0     0.073603     0.671986     0.826803  Biso 1.000000     C
    C   1.0     0.273831     0.875403     0.875392  Biso 1.000000     C
    C   1.0     0.427255     0.826839     0.827167  Biso 1.000000     C
    C   1.0     0.273890     0.624528     0.624740  Biso 1.000000     C
    C   1.0     0.427630     0.672433     0.673717  Biso 1.000000     C
    N   1.0     0.411534     0.310973     0.687439  Biso 1.000000     N
    N   1.0     0.088099     0.189788     0.687690  Biso 1.000000     N
    N   1.0     0.088318     0.310431     0.812554  Biso 1.000000     N
    N   1.0     0.411757     0.189233     0.812342  Biso 1.000000     N
    N   1.0     0.686826     0.411992     0.309918  Biso 1.000000     N
    N   1.0     0.686848     0.088106     0.189694  Biso 1.000000     N
    N   1.0     0.811818     0.087947     0.311043  Biso 1.000000     N
    N   1.0     0.811839     0.412137     0.189296  Biso 1.000000     N
    N   1.0     0.310578     0.688178     0.411860  Biso 1.000000     N
    N   1.0     0.189069     0.687824     0.088495  Biso 1.000000     N
    N   1.0     0.310106     0.812656     0.088213  Biso 1.000000     N
    N   1.0     0.189531     0.813063     0.411392  Biso 1.000000     N
    N   1.0     0.810951     0.911475     0.312670  Biso 1.000000     N
    N   1.0     0.689779     0.588018     0.312242  Biso 1.000000     N
    N   1.0     0.810633     0.588385     0.187355  Biso 1.000000     N
    N   1.0     0.689437     0.911841     0.187740  Biso 1.000000     N
    N   1.0     0.912071     0.187022     0.690080  Biso 1.000000     N
    N   1.0     0.588153     0.187041     0.810541  Biso 1.000000     N
    N   1.0     0.588050     0.312089     0.689038  Biso 1.000000     N
    N   1.0     0.912162     0.312044     0.810441  Biso 1.000000     N
    N   1.0     0.188426     0.810795     0.588178  Biso 1.000000     N
    N   1.0     0.188183     0.688956     0.911620  Biso 1.000000     N
    N   1.0     0.312959     0.810048     0.911692  Biso 1.000000     N
    N   1.0     0.313217     0.689679     0.588556  Biso 1.000000     N
    N   1.0     0.588496     0.689008     0.312569  Biso 1.000000     N
    N   1.0     0.911930     0.810192     0.312317  Biso 1.000000     N
    N   1.0     0.911712     0.689548     0.187454  Biso 1.000000     N
    N   1.0     0.588272     0.810747     0.187666  Biso 1.000000     N
    N   1.0     0.313204     0.587988     0.690090  Biso 1.000000     N
    N   1.0     0.313181     0.911875     0.810314  Biso 1.000000     N
    N   1.0     0.188211     0.912033     0.688965  Biso 1.000000     N
    N   1.0     0.188191     0.587843     0.810712  Biso 1.000000     N
    N   1.0     0.689451     0.311802     0.588148  Biso 1.000000     N
    N   1.0     0.810961     0.312157     0.911514  Biso 1.000000     N
    N   1.0     0.689923     0.187324     0.911795  Biso 1.000000     N
    N   1.0     0.810498     0.186918     0.588616  Biso 1.000000     N
    N   1.0     0.189078     0.088505     0.687337  Biso 1.000000     N
    N   1.0     0.310251     0.411962     0.687766  Biso 1.000000     N
    N   1.0     0.189397     0.411595     0.812653  Biso 1.000000     N
    N   1.0     0.310592     0.088139     0.812267  Biso 1.000000     N
    N   1.0     0.087958     0.812959     0.309928  Biso 1.000000     N
    N   1.0     0.411876     0.812939     0.189468  Biso 1.000000     N
    N   1.0     0.411979     0.687891     0.310970  Biso 1.000000     N
    N   1.0     0.087867     0.687936     0.189568  Biso 1.000000     N
    N   1.0     0.811604     0.189185     0.411830  Biso 1.000000     N
    N   1.0     0.811846     0.311024     0.088388  Biso 1.000000     N
    N   1.0     0.687070     0.189933     0.088316  Biso 1.000000     N
    N   1.0     0.686813     0.310301     0.411452  Biso 1.000000     N
    O   1.0     0.399217     0.398675     0.793688  Biso 1.000000     O
    O   1.0     0.101345     0.100817     0.793760  Biso 1.000000     O
    O   1.0     0.101113     0.398999     0.706119  Biso 1.000000     O
    O   1.0     0.399092     0.101041     0.706517  Biso 1.000000     O
    O   1.0     0.792263     0.399110     0.399323  Biso 1.000000     O
    O   1.0     0.792190     0.100739     0.100837  Biso 1.000000     O
    O   1.0     0.705740     0.100963     0.398932  Biso 1.000000     O
    O   1.0     0.705635     0.398870     0.100889  Biso 1.000000     O
    O   1.0     0.399150     0.793736     0.398904  Biso 1.000000     O
    O   1.0     0.101216     0.794029     0.100855  Biso 1.000000     O
    O   1.0     0.399331     0.707601     0.100875  Biso 1.000000     O
    O   1.0     0.100959     0.707438     0.399369  Biso 1.000000     O
    O   1.0     0.898683     0.899163     0.206248  Biso 1.000000     O
    O   1.0     0.600813     0.601306     0.206321  Biso 1.000000     O
    O   1.0     0.898917     0.600980     0.293889  Biso 1.000000     O
    O   1.0     0.600936     0.898940     0.293490  Biso 1.000000     O
    O   1.0     0.899069     0.292543     0.600640  Biso 1.000000     O
    O   1.0     0.600698     0.292379     0.899134  Biso 1.000000     O
    O   1.0     0.600879     0.206245     0.601104  Biso 1.000000     O
    O   1.0     0.898814     0.205952     0.899154  Biso 1.000000     O
    O   1.0     0.294290     0.899017     0.601076  Biso 1.000000     O
    O   1.0     0.294394     0.601110     0.899120  Biso 1.000000     O
    O   1.0     0.207839     0.899241     0.899172  Biso 1.000000     O
    O   1.0     0.207766     0.600870     0.600684  Biso 1.000000     O
   Pd   1.0     0.499858     0.249810     0.749797  Biso 1.000000    Pd
   Pd   1.0     0.000175     0.249801     0.750233  Biso 1.000000    Pd
   Pd   1.0     0.749735     0.500152     0.249630  Biso 1.000000    Pd
   Pd   1.0     0.749722    -0.000165     0.250361  Biso 1.000000    Pd
   Pd   1.0     0.250508     0.750516     0.499996  Biso 1.000000    Pd
   Pd   1.0     0.250071     0.749816     0.000000  Biso 1.000000    Pd
   Pd   1.0     0.500171     0.750170     0.250211  Biso 1.000000    Pd
   Pd   1.0    -0.000166     0.750179     0.249775  Biso 1.000000    Pd
   Pd   1.0     0.250294     0.499828     0.750378  Biso 1.000000    Pd
   Pd   1.0     0.250299     0.000167     0.749647  Biso 1.000000    Pd
   Pd   1.0     0.749522     0.249464     0.500012  Biso 1.000000    Pd
   Pd   1.0     0.749959     0.250162     0.000000  Biso 1.000000    Pd
