#======================================================================

# CRYSTAL DATA

#----------------------------------------------------------------------

data_VESTA_phase_1


_pd_phase_name                         MOF
_cell_length_a                         20.67700
_cell_length_b                         20.59500
_cell_length_c                         12.00100
_cell_angle_alpha                      90.06700
_cell_angle_beta                       90.23400
_cell_angle_gamma                      90.04000
_symmetry_space_group_name_H-M         "P 1"
_symmetry_Int_Tables_number            1

loop_
_symmetry_equiv_pos_as_xyz
   "x, y, z"

loop_
   _atom_site_label
   _atom_site_occupancy
   _atom_site_fract_x
   _atom_site_fract_y
   _atom_site_fract_z
   _atom_site_adp_type
   _atom_site_B_iso_or_equiv
   _atom_site_type_symbol
    H   1.0     0.283502     0.204211     0.445461  Biso 1.000000     H
    H   1.0     0.283467     0.704209     0.445511  Biso 1.000000     H
    H   1.0     0.783467     0.204219     0.445526  Biso 1.000000     H
    H   1.0     0.783501     0.704201     0.445472  Biso 1.000000     H
    H   1.0     0.462114     0.234870     0.750508  Biso 1.000000     H
    H   1.0     0.462134     0.734857     0.750461  Biso 1.000000     H
    H   1.0     0.962145     0.234866     0.750459  Biso 1.000000     H
    H   1.0     0.962116     0.734865     0.750510  Biso 1.000000     H
    H   1.0     0.433647     0.306669     0.696333  Biso 1.000000     H
    H   1.0     0.433657     0.806657     0.696311  Biso 1.000000     H
    H   1.0     0.933662     0.306664     0.696317  Biso 1.000000     H
    H   1.0     0.933637     0.806662     0.696350  Biso 1.000000     H
    H   1.0     0.219178     0.295236     0.950023  Biso 1.000000     H
    H   1.0     0.219122     0.795254     0.949998  Biso 1.000000     H
    H   1.0     0.719069     0.295275     0.949942  Biso 1.000000     H
    H   1.0     0.719152     0.795233     0.949976  Biso 1.000000     H
    H   1.0     0.036305     0.266515     0.245082  Biso 1.000000     H
    H   1.0     0.036329     0.766493     0.245201  Biso 1.000000     H
    H   1.0     0.536368     0.266488     0.245311  Biso 1.000000     H
    H   1.0     0.536330     0.766504     0.245132  Biso 1.000000     H
    H   1.0     0.065862     0.194300     0.194904  Biso 1.000000     H
    H   1.0     0.065870     0.694285     0.194955  Biso 1.000000     H
    H   1.0     0.565894     0.194288     0.195010  Biso 1.000000     H
    H   1.0     0.565888     0.694291     0.194943  Biso 1.000000     H
    H   1.0     0.044027     0.033599     0.697585  Biso 1.000000     H
    H   1.0     0.044038     0.533610     0.697567  Biso 1.000000     H
    H   1.0     0.544049     0.033632     0.697542  Biso 1.000000     H
    H   1.0     0.544040     0.533624     0.697540  Biso 1.000000     H
    H   1.0     0.514104     0.210826     0.005936  Biso 1.000000     H
    H   1.0     0.514100     0.710819     0.005941  Biso 1.000000     H
    H   1.0     0.000000     0.210837     0.005915  Biso 1.000000     H
    H   1.0     0.000000     0.710831     0.005919  Biso 1.000000     H
    H   1.0     0.442856     0.182923     0.949276  Biso 1.000000     H
    H   1.0     0.442854     0.682935     0.949245  Biso 1.000000     H
    H   1.0     0.942860     0.182957     0.949215  Biso 1.000000     H
    H   1.0     0.942861     0.682932     0.949248  Biso 1.000000     H
    H   1.0     0.455062     0.464276     0.192586  Biso 1.000000     H
    H   1.0     0.455052     0.964231     0.192501  Biso 1.000000     H
    H   1.0     0.955056     0.464199     0.192458  Biso 1.000000     H
    H   1.0     0.955059     0.964208     0.192498  Biso 1.000000     H
    H   1.0    -0.013860     0.289961     0.505176  Biso 1.000000     H
    H   1.0    -0.013873     0.789952     0.505188  Biso 1.000000     H
    H   1.0     0.486130     0.289939     0.505142  Biso 1.000000     H
    H   1.0     0.486142     0.789949     0.505144  Biso 1.000000     H
    H   1.0     0.057417     0.316781     0.447187  Biso 1.000000     H
    H   1.0     0.057405     0.816794     0.447247  Biso 1.000000     H
    H   1.0     0.557409     0.316806     0.447251  Biso 1.000000     H
    H   1.0     0.557420     0.816780     0.447179  Biso 1.000000     H
    H   1.0     0.466324     0.454684     0.809179  Biso 1.000000     H
    H   1.0     0.466336     0.954673     0.809173  Biso 1.000000     H
    H   1.0     0.966330     0.454682     0.809196  Biso 1.000000     H
    H   1.0     0.966285     0.954672     0.809239  Biso 1.000000     H
    H   1.0     0.287898    -0.015398     0.503766  Biso 1.000000     H
    H   1.0     0.287896     0.484597     0.503751  Biso 1.000000     H
    H   1.0     0.787918    -0.015392     0.503704  Biso 1.000000     H
    H   1.0     0.787913     0.484594     0.503750  Biso 1.000000     H
    H   1.0     0.316202     0.056493     0.558224  Biso 1.000000     H
    H   1.0     0.316185     0.556488     0.558239  Biso 1.000000     H
    H   1.0     0.816191     0.056498     0.558225  Biso 1.000000     H
    H   1.0     0.816208     0.556485     0.558226  Biso 1.000000     H
    H   1.0     0.030857     0.045512     0.306057  Biso 1.000000     H
    H   1.0     0.030870     0.545487     0.306036  Biso 1.000000     H
    H   1.0     0.530920     0.045501     0.306094  Biso 1.000000     H
    H   1.0     0.530921     0.545517     0.306148  Biso 1.000000     H
    H   1.0     0.213653     0.516437     0.000000  Biso 1.000000     H
    H   1.0     0.213659     0.000000     0.000000  Biso 1.000000     H
    H   1.0     0.713629     0.516427     0.000000  Biso 1.000000     H
    H   1.0     0.713630     0.000000     0.000000  Biso 1.000000     H
    H   1.0     0.184030     0.444256     0.061006  Biso 1.000000     H
    H   1.0     0.184020     0.944247     0.061048  Biso 1.000000     H
    H   1.0     0.684003     0.444249     0.061017  Biso 1.000000     H
    H   1.0     0.684019     0.944245     0.060965  Biso 1.000000     H
    H   1.0     0.205749     0.283007     0.556466  Biso 1.000000     H
    H   1.0     0.205762     0.783025     0.556543  Biso 1.000000     H
    H   1.0     0.705773     0.283037     0.556574  Biso 1.000000     H
    H   1.0     0.705750     0.783004     0.556470  Biso 1.000000     H
    H   1.0     0.235956     0.460903     0.250018  Biso 1.000000     H
    H   1.0     0.235953     0.960884     0.250022  Biso 1.000000     H
    H   1.0     0.735957     0.460882     0.250027  Biso 1.000000     H
    H   1.0     0.735959     0.960895     0.250017  Biso 1.000000     H
    H   1.0     0.307180     0.432679     0.306082  Biso 1.000000     H
    H   1.0     0.307181     0.932662     0.306079  Biso 1.000000     H
    H   1.0     0.807187     0.432652     0.306064  Biso 1.000000     H
    H   1.0     0.807184     0.932658     0.306055  Biso 1.000000     H
    H   1.0     0.295008     0.213976     0.063582  Biso 1.000000     H
    H   1.0     0.295005     0.714033     0.063509  Biso 1.000000     H
    H   1.0     0.795005     0.214095     0.063445  Biso 1.000000     H
    H   1.0     0.795011     0.714015     0.063527  Biso 1.000000     H
    H   1.0     0.263687     0.040166     0.749439  Biso 1.000000     H
    H   1.0     0.263690     0.540143     0.749503  Biso 1.000000     H
    H   1.0     0.763701     0.040135     0.749556  Biso 1.000000     H
    H   1.0     0.763696     0.540149     0.749480  Biso 1.000000     H
    H   1.0     0.192456     0.066773     0.807806  Biso 1.000000     H
    H   1.0     0.192458     0.566774     0.807824  Biso 1.000000     H
    H   1.0     0.692465     0.066786     0.807831  Biso 1.000000     H
    H   1.0     0.692464     0.566778     0.807805  Biso 1.000000     H
    C   1.0     0.395304     0.223926     0.627427  Biso 1.000000     C
    C   1.0     0.395304     0.723917     0.627415  Biso 1.000000     C
    C   1.0     0.895311     0.223925     0.627418  Biso 1.000000     C
    C   1.0     0.895305     0.723919     0.627432  Biso 1.000000     C
    C   1.0     0.320152     0.199760     0.509980  Biso 1.000000     C
    C   1.0     0.320128     0.699757     0.510010  Biso 1.000000     C
    C   1.0     0.820130     0.199766     0.510021  Biso 1.000000     C
    C   1.0     0.820151     0.699751     0.509988  Biso 1.000000     C
    C   1.0     0.104812     0.276576     0.125808  Biso 1.000000     C
    C   1.0     0.104806     0.776572     0.125874  Biso 1.000000     C
    C   1.0     0.604807     0.276580     0.125918  Biso 1.000000     C
    C   1.0     0.604816     0.776569     0.125820  Biso 1.000000     C
    C   1.0     0.181560     0.300114     0.012248  Biso 1.000000     C
    C   1.0     0.181522     0.800123     0.012260  Biso 1.000000     C
    C   1.0     0.681488     0.300140     0.012238  Biso 1.000000     C
    C   1.0     0.681544     0.800109     0.012220  Biso 1.000000     C
    C   1.0     0.025220     0.144855     0.881015  Biso 1.000000     C
    C   1.0     0.025222     0.644852     0.881016  Biso 1.000000     C
    C   1.0     0.525228     0.144856     0.881021  Biso 1.000000     C
    C   1.0     0.525227     0.644852     0.881018  Biso 1.000000     C
    C   1.0     0.048820     0.070063     0.762448  Biso 1.000000     C
    C   1.0     0.048828     0.570071     0.762435  Biso 1.000000     C
    C   1.0     0.548837     0.070087     0.762419  Biso 1.000000     C
    C   1.0     0.548831     0.570079     0.762417  Biso 1.000000     C
    C   1.0     0.474663     0.354756     0.378658  Biso 1.000000     C
    C   1.0     0.474669     0.854740     0.378620  Biso 1.000000     C
    C   1.0     0.974675     0.354736     0.378625  Biso 1.000000     C
    C   1.0     0.974667     0.854737     0.378654  Biso 1.000000     C
    C   1.0     0.450545     0.428359     0.258185  Biso 1.000000     C
    C   1.0     0.450541     0.928325     0.258119  Biso 1.000000     C
    C   1.0     0.950546     0.428303     0.258092  Biso 1.000000     C
    C   1.0     0.950544     0.928309     0.258125  Biso 1.000000     C
    C   1.0     0.354526     0.473914     0.627142  Biso 1.000000     C
    C   1.0     0.354536     0.973902     0.627142  Biso 1.000000     C
    C   1.0     0.854541     0.473911     0.627145  Biso 1.000000     C
    C   1.0     0.854525     0.973903     0.627133  Biso 1.000000     C
    C   1.0     0.429675     0.450046     0.744671  Biso 1.000000     C
    C   1.0     0.429687     0.950034     0.744666  Biso 1.000000     C
    C   1.0     0.929684     0.450043     0.744683  Biso 1.000000     C
    C   1.0     0.929650     0.950034     0.744708  Biso 1.000000     C
    C   1.0     0.145102     0.026634     0.130108  Biso 1.000000     C
    C   1.0     0.145109     0.526624     0.130068  Biso 1.000000     C
    C   1.0     0.645117     0.026634     0.130044  Biso 1.000000     C
    C   1.0     0.645112     0.526623     0.130098  Biso 1.000000     C
    C   1.0     0.068436     0.050290     0.243743  Biso 1.000000     C
    C   1.0     0.068447     0.550271     0.243721  Biso 1.000000     C
    C   1.0     0.568483     0.050284     0.243753  Biso 1.000000     C
    C   1.0     0.568483     0.550289     0.243802  Biso 1.000000     C
    C   1.0     0.224732     0.394695     0.374278  Biso 1.000000     C
    C   1.0     0.224735     0.894693     0.374316  Biso 1.000000     C
    C   1.0     0.724743     0.394697     0.374331  Biso 1.000000     C
    C   1.0     0.724737     0.894686     0.374274  Biso 1.000000     C
    C   1.0     0.201010     0.319671     0.492092  Biso 1.000000     C
    C   1.0     0.201018     0.819685     0.492163  Biso 1.000000     C
    C   1.0     0.701027     0.319696     0.492192  Biso 1.000000     C
    C   1.0     0.701013     0.819667     0.492094  Biso 1.000000     C
    C   1.0     0.275238     0.104817     0.876430  Biso 1.000000     C
    C   1.0     0.275237     0.604826     0.876441  Biso 1.000000     C
    C   1.0     0.775241     0.104847     0.876448  Biso 1.000000     C
    C   1.0     0.775244     0.604822     0.876434  Biso 1.000000     C
    C   1.0     0.299460     0.178225     0.997550  Biso 1.000000     C
    C   1.0     0.299457     0.678266     0.997504  Biso 1.000000     C
    C   1.0     0.799459     0.178313     0.997463  Biso 1.000000     C
    C   1.0     0.799464     0.678252     0.997515  Biso 1.000000     C
    N   1.0     0.355125     0.251476     0.550129  Biso 1.000000     N
    N   1.0     0.355117     0.751468     0.550132  Biso 1.000000     N
    N   1.0     0.855120     0.251477     0.550142  Biso 1.000000     N
    N   1.0     0.855123     0.751468     0.550137  Biso 1.000000     N
    N   1.0     0.384644     0.159493     0.633766  Biso 1.000000     N
    N   1.0     0.384636     0.659486     0.633768  Biso 1.000000     N
    N   1.0     0.884643     0.159494     0.633770  Biso 1.000000     N
    N   1.0     0.884648     0.659485     0.633769  Biso 1.000000     N
    N   1.0     0.335859     0.144291     0.557497  Biso 1.000000     N
    N   1.0     0.335835     0.644288     0.557528  Biso 1.000000     N
    N   1.0     0.835840     0.144296     0.557535  Biso 1.000000     N
    N   1.0     0.835862     0.644282     0.557502  Biso 1.000000     N
    N   1.0     0.442997     0.257514     0.682136  Biso 1.000000     N
    N   1.0     0.443009     0.757503     0.682098  Biso 1.000000     N
    N   1.0     0.943017     0.257512     0.682098  Biso 1.000000     N
    N   1.0     0.942996     0.757510     0.682141  Biso 1.000000     N
    N   1.0     0.146164     0.248614     0.051441  Biso 1.000000     N
    N   1.0     0.146139     0.748617     0.051465  Biso 1.000000     N
    N   1.0     0.646122     0.248630     0.051471  Biso 1.000000     N
    N   1.0     0.646160     0.748607     0.051439  Biso 1.000000     N
    N   1.0     0.115078     0.341075     0.131348  Biso 1.000000     N
    N   1.0     0.115075     0.841070     0.131434  Biso 1.000000     N
    N   1.0     0.615073     0.341079     0.131473  Biso 1.000000     N
    N   1.0     0.615076     0.841069     0.131344  Biso 1.000000     N
    N   1.0     0.164923     0.355908     0.057670  Biso 1.000000     N
    N   1.0     0.164899     0.855912     0.057718  Biso 1.000000     N
    N   1.0     0.664874     0.355926     0.057714  Biso 1.000000     N
    N   1.0     0.664908     0.855904     0.057641  Biso 1.000000     N
    N   1.0     0.056460     0.243199     0.178509  Biso 1.000000     N
    N   1.0     0.056468     0.743189     0.178599  Biso 1.000000     N
    N   1.0     0.556486     0.243193     0.178681  Biso 1.000000     N
    N   1.0     0.556477     0.743189     0.178550  Biso 1.000000     N
    N   1.0     0.497498     0.104811     0.803426  Biso 1.000000     N
    N   1.0     0.497494     0.604807     0.803422  Biso 1.000000     N
    N   1.0     0.997497     0.104803     0.803431  Biso 1.000000     N
    N   1.0     0.997501     0.604802     0.803429  Biso 1.000000     N
    N   1.0     0.089491     0.134327     0.886504  Biso 1.000000     N
    N   1.0     0.089494     0.634332     0.886502  Biso 1.000000     N
    N   1.0     0.589501     0.134340     0.886499  Biso 1.000000     N
    N   1.0     0.589499     0.634329     0.886499  Biso 1.000000     N
    N   1.0     0.104302     0.085767     0.809640  Biso 1.000000     N
    N   1.0     0.104309     0.585778     0.809628  Biso 1.000000     N
    N   1.0     0.604318     0.085795     0.809611  Biso 1.000000     N
    N   1.0     0.604313     0.585782     0.809613  Biso 1.000000     N
    N   1.0     0.491899     0.192161     0.936521  Biso 1.000000     N
    N   1.0     0.491902     0.692161     0.936513  Biso 1.000000     N
    N   1.0     0.991909     0.192175     0.936487  Biso 1.000000     N
    N   1.0     0.991906     0.692165     0.936501  Biso 1.000000     N
    N   1.0     0.002122     0.394157     0.300270  Biso 1.000000     N
    N   1.0     0.002118     0.894166     0.300318  Biso 1.000000     N
    N   1.0     0.502128     0.394206     0.300359  Biso 1.000000     N
    N   1.0     0.502128     0.894170     0.300279  Biso 1.000000     N
    N   1.0     0.410368     0.365109     0.383349  Biso 1.000000     N
    N   1.0     0.410376     0.865107     0.383340  Biso 1.000000     N
    N   1.0     0.910382     0.365101     0.383339  Biso 1.000000     N
    N   1.0     0.910372     0.865092     0.383342  Biso 1.000000     N
    N   1.0     0.395217     0.412905     0.305273  Biso 1.000000     N
    N   1.0     0.395220     0.912891     0.305247  Biso 1.000000     N
    N   1.0     0.895224     0.412873     0.305224  Biso 1.000000     N
    N   1.0     0.895218     0.912868     0.305231  Biso 1.000000     N
    N   1.0     0.008118     0.308088     0.435611  Biso 1.000000     N
    N   1.0     0.008112     0.808088     0.435636  Biso 1.000000     N
    N   1.0     0.508120     0.308092     0.435608  Biso 1.000000     N
    N   1.0     0.508123     0.808083     0.435587  Biso 1.000000     N
    N   1.0     0.394696     0.001643     0.704464  Biso 1.000000     N
    N   1.0     0.394685     0.501635     0.704466  Biso 1.000000     N
    N   1.0     0.894669     0.001644     0.704483  Biso 1.000000     N
    N   1.0     0.894697     0.501633     0.704472  Biso 1.000000     N
    N   1.0     0.365214     0.409487     0.620884  Biso 1.000000     N
    N   1.0     0.365222     0.909475     0.620887  Biso 1.000000     N
    N   1.0     0.865230     0.409485     0.620888  Biso 1.000000     N
    N   1.0     0.865211     0.909476     0.620887  Biso 1.000000     N
    N   1.0     0.413991     0.394477     0.697190  Biso 1.000000     N
    N   1.0     0.413999     0.894465     0.697190  Biso 1.000000     N
    N   1.0     0.914002     0.394474     0.697201  Biso 1.000000     N
    N   1.0     0.913972     0.894465     0.697222  Biso 1.000000     N
    N   1.0     0.306873     0.007330     0.572314  Biso 1.000000     N
    N   1.0     0.306865     0.507321     0.572308  Biso 1.000000     N
    N   1.0     0.806874     0.007329     0.572274  Biso 1.000000     N
    N   1.0     0.806882     0.507320     0.572305  Biso 1.000000     N
    N   1.0     0.103805     0.498737     0.204548  Biso 1.000000     N
    N   1.0     0.103800     0.998734     0.204601  Biso 1.000000     N
    N   1.0     0.603828     0.498747     0.204627  Biso 1.000000     N
    N   1.0     0.603827     0.998729     0.204552  Biso 1.000000     N
    N   1.0     0.134819     0.091102     0.124377  Biso 1.000000     N
    N   1.0     0.134829     0.591093     0.124363  Biso 1.000000     N
    N   1.0     0.634845     0.091105     0.124362  Biso 1.000000     N
    N   1.0     0.634833     0.591092     0.124375  Biso 1.000000     N
    N   1.0     0.085028     0.106012     0.198136  Biso 1.000000     N
    N   1.0     0.085041     0.605997     0.198132  Biso 1.000000     N
    N   1.0     0.585074     0.106010     0.198166  Biso 1.000000     N
    N   1.0     0.585067     0.606008     0.198179  Biso 1.000000     N
    N   1.0     0.193438     0.493192     0.077390  Biso 1.000000     N
    N   1.0     0.193437     0.993180     0.077449  Biso 1.000000     N
    N   1.0     0.693426     0.493184     0.077393  Biso 1.000000     N
    N   1.0     0.693432     0.993182     0.077333  Biso 1.000000     N
    N   1.0     0.252416     0.354379     0.451276  Biso 1.000000     N
    N   1.0     0.252423     0.854376     0.451304  Biso 1.000000     N
    N   1.0     0.752432     0.354380     0.451318  Biso 1.000000     N
    N   1.0     0.752420     0.854369     0.451271  Biso 1.000000     N
    N   1.0     0.160425     0.384356     0.368954  Biso 1.000000     N
    N   1.0     0.160424     0.884368     0.369035  Biso 1.000000     N
    N   1.0     0.660431     0.384379     0.369069  Biso 1.000000     N
    N   1.0     0.660428     0.884351     0.368952  Biso 1.000000     N
    N   1.0     0.145526     0.335638     0.445330  Biso 1.000000     N
    N   1.0     0.145528     0.835659     0.445431  Biso 1.000000     N
    N   1.0     0.645535     0.335675     0.445472  Biso 1.000000     N
    N   1.0     0.645528     0.835636     0.445334  Biso 1.000000     N
    N   1.0     0.258186     0.442030     0.319135  Biso 1.000000     N
    N   1.0     0.258188     0.942014     0.319138  Biso 1.000000     N
    N   1.0     0.758197     0.442012     0.319137  Biso 1.000000     N
    N   1.0     0.758194     0.942018     0.319126  Biso 1.000000     N
    N   1.0     0.247847     0.144005     0.955306  Biso 1.000000     N
    N   1.0     0.247845     0.644032     0.955289  Biso 1.000000     N
    N   1.0     0.747848     0.144068     0.955271  Biso 1.000000     N
    N   1.0     0.747852     0.644022     0.955290  Biso 1.000000     N
    N   1.0     0.339524     0.115353     0.871523  Biso 1.000000     N
    N   1.0     0.339521     0.615362     0.871523  Biso 1.000000     N
    N   1.0     0.839525     0.115384     0.871521  Biso 1.000000     N
    N   1.0     0.839529     0.615357     0.871521  Biso 1.000000     N
    N   1.0     0.354730     0.163023     0.950014  Biso 1.000000     N
    N   1.0     0.354727     0.663053     0.949976  Biso 1.000000     N
    N   1.0     0.854729     0.163092     0.949944  Biso 1.000000     N
    N   1.0     0.854734     0.663042     0.949986  Biso 1.000000     N
    N   1.0     0.241762     0.058164     0.819197  Biso 1.000000     N
    N   1.0     0.241760     0.558156     0.819245  Biso 1.000000     N
    N   1.0     0.741765     0.058163     0.819280  Biso 1.000000     N
    N   1.0     0.741766     0.558158     0.819225  Biso 1.000000     N
   Zn   1.0     0.344689     0.344294     0.500727  Biso 1.000000    Zn
   Zn   1.0     0.344698     0.844286     0.500722  Biso 1.000000    Zn
   Zn   1.0     0.844706     0.344294     0.500727  Biso 1.000000    Zn
   Zn   1.0     0.844694     0.844285     0.500725  Biso 1.000000    Zn
   Zn   1.0     0.155632     0.155553     0.004067  Biso 1.000000    Zn
   Zn   1.0     0.155631     0.655555     0.004071  Biso 1.000000    Zn
   Zn   1.0     0.655635     0.155569     0.004073  Biso 1.000000    Zn
   Zn   1.0     0.655638     0.655546     0.004070  Biso 1.000000    Zn
   Zn   1.0     0.405202     0.094459     0.753998  Biso 1.000000    Zn
   Zn   1.0     0.405198     0.594452     0.753999  Biso 1.000000    Zn
   Zn   1.0     0.905202     0.094460     0.754001  Biso 1.000000    Zn
   Zn   1.0     0.905206     0.594451     0.753999  Biso 1.000000    Zn
   Zn   1.0     0.094321     0.405645     0.251540  Biso 1.000000    Zn
   Zn   1.0     0.094321     0.905643     0.251650  Biso 1.000000    Zn
   Zn   1.0     0.594330     0.405657     0.251695  Biso 1.000000    Zn
   Zn   1.0     0.594326     0.905638     0.251533  Biso 1.000000    Zn
