#======================================================================

# CRYSTAL DATA

#----------------------------------------------------------------------

data_VESTA_phase_1


_pd_phase_name                         MOF
_cell_length_a                         24.46700
_cell_length_b                         12.62600
_cell_length_c                         16.55700
_cell_angle_alpha                      89.85800
_cell_angle_beta                       90.28800
_cell_angle_gamma                      89.91500
_symmetry_space_group_name_H-M         "P 1"
_symmetry_Int_Tables_number            1

loop_
_symmetry_equiv_pos_as_xyz
   "x, y, z"

loop_
   _atom_site_label
   _atom_site_occupancy
   _atom_site_fract_x
   _atom_site_fract_y
   _atom_site_fract_z
   _atom_site_adp_type
   _atom_site_B_iso_or_equiv
   _atom_site_type_symbol
    H   1.0     0.366573     0.724050     0.575123  Biso 1.000000     H
    H   1.0     0.865908     0.725173     0.575241  Biso 1.000000     H
    H   1.0     0.405800     0.926253     0.764081  Biso 1.000000     H
    H   1.0     0.905681     0.926742     0.764368  Biso 1.000000     H
    H   1.0     0.441368     0.797707     0.489285  Biso 1.000000     H
    H   1.0     0.940759     0.798390     0.489360  Biso 1.000000     H
    H   1.0     0.479662     0.010933     0.685403  Biso 1.000000     H
    H   1.0     0.979667     0.010968     0.685629  Biso 1.000000     H
    H   1.0     0.041703    -0.003069     0.569019  Biso 1.000000     H
    H   1.0     0.541810    -0.002899     0.568696  Biso 1.000000     H
    H   1.0     0.032010     0.894676     0.496251  Biso 1.000000     H
    H   1.0     0.532006     0.895357     0.495527  Biso 1.000000     H
    H   1.0     0.040160     0.488002     0.928331  Biso 1.000000     H
    H   1.0     0.540618     0.489794     0.929249  Biso 1.000000     H
    H   1.0     0.036810     0.598545     0.995056  Biso 1.000000     H
    H   1.0     0.536230     0.599277     0.996860  Biso 1.000000     H
    H   1.0     0.482817     0.489888     0.808131  Biso 1.000000     H
    H   1.0     0.982623     0.489969     0.807151  Biso 1.000000     H
    H   1.0     0.442083     0.694903     0.000000  Biso 1.000000     H
    H   1.0     0.942019     0.693465     0.000000  Biso 1.000000     H
    H   1.0     0.408690     0.575676     0.729597  Biso 1.000000     H
    H   1.0     0.908436     0.576321     0.729124  Biso 1.000000     H
    H   1.0     0.367221     0.769877     0.922215  Biso 1.000000     H
    H   1.0     0.867044     0.768999     0.922665  Biso 1.000000     H
    H   1.0     0.134066     0.273256     0.425004  Biso 1.000000     H
    H   1.0     0.633264     0.275175     0.424703  Biso 1.000000     H
    H   1.0     0.094194     0.073931     0.234544  Biso 1.000000     H
    H   1.0     0.594145     0.074207     0.234940  Biso 1.000000     H
    H   1.0     0.059147     0.199185     0.510374  Biso 1.000000     H
    H   1.0     0.558235     0.201293     0.510021  Biso 1.000000     H
    H   1.0     0.020116     0.989040     0.312658  Biso 1.000000     H
    H   1.0     0.520100     0.989262     0.313085  Biso 1.000000     H
    H   1.0     0.457895     0.000000     0.429828  Biso 1.000000     H
    H   1.0     0.958248     0.000000     0.429515  Biso 1.000000     H
    H   1.0     0.467545     0.103961     0.503107  Biso 1.000000     H
    H   1.0     0.967670     0.103443     0.502462  Biso 1.000000     H
    H   1.0     0.459720     0.510668     0.070119  Biso 1.000000     H
    H   1.0     0.960407     0.512376     0.070357  Biso 1.000000     H
    H   1.0     0.464139     0.401146     0.002541  Biso 1.000000     H
    H   1.0     0.963894     0.401768     0.003710  Biso 1.000000     H
    H   1.0     0.017749     0.510808     0.191633  Biso 1.000000     H
    H   1.0     0.517620     0.511041     0.191116  Biso 1.000000     H
    H   1.0     0.058609     0.306592    -0.008352  Biso 1.000000     H
    H   1.0     0.558070     0.305046    -0.008025  Biso 1.000000     H
    H   1.0     0.091596     0.424230     0.270261  Biso 1.000000     H
    H   1.0     0.591599     0.425114     0.269893  Biso 1.000000     H
    H   1.0     0.133212     0.230817     0.077251  Biso 1.000000     H
    H   1.0     0.632763     0.229872     0.077732  Biso 1.000000     H
    H   1.0     0.382601     0.223424     0.923587  Biso 1.000000     H
    H   1.0     0.881792     0.224519     0.923360  Biso 1.000000     H
    H   1.0     0.342477     0.427026     0.734958  Biso 1.000000     H
    H   1.0     0.842110     0.427299     0.734023  Biso 1.000000     H
    H   1.0     0.308067     0.296768     0.000000  Biso 1.000000     H
    H   1.0     0.807237     0.298523     0.000000  Biso 1.000000     H
    H   1.0     0.268757     0.511222     0.814234  Biso 1.000000     H
    H   1.0     0.768271     0.511938     0.812751  Biso 1.000000     H
    H   1.0     0.207511     0.497746     0.932120  Biso 1.000000     H
    H   1.0     0.706850     0.499250     0.930588  Biso 1.000000     H
    H   1.0     0.217741     0.395601     0.000000  Biso 1.000000     H
    H   1.0     0.716988     0.397522     0.000000  Biso 1.000000     H
    H   1.0     0.209234     0.989037     0.570676  Biso 1.000000     H
    H   1.0     0.709147     0.989349     0.570251  Biso 1.000000     H
    H   1.0     0.213384     0.098412     0.502574  Biso 1.000000     H
    H   1.0     0.713246     0.098895     0.502294  Biso 1.000000     H
    H   1.0     0.266323    -0.009604     0.692298  Biso 1.000000     H
    H   1.0     0.765976    -0.008965     0.692105  Biso 1.000000     H
    H   1.0     0.307595     0.194018     0.491455  Biso 1.000000     H
    H   1.0     0.807581     0.194345     0.491243  Biso 1.000000     H
    H   1.0     0.340075     0.076603     0.770798  Biso 1.000000     H
    H   1.0     0.839774     0.077035     0.770683  Biso 1.000000     H
    H   1.0     0.382165     0.269208     0.576958  Biso 1.000000     H
    H   1.0     0.882153     0.269423     0.576876  Biso 1.000000     H
    H   1.0     0.118183     0.775580     0.076728  Biso 1.000000     H
    H   1.0     0.617397     0.777096     0.076046  Biso 1.000000     H
    H   1.0     0.158227     0.572746     0.265876  Biso 1.000000     H
    H   1.0     0.657842     0.573630     0.264594  Biso 1.000000     H
    H   1.0     0.192570     0.701610    -0.009673  Biso 1.000000     H
    H   1.0     0.691788     0.703634    -0.010763  Biso 1.000000     H
    H   1.0     0.231910     0.488138     0.186813  Biso 1.000000     H
    H   1.0     0.731445     0.489360     0.185069  Biso 1.000000     H
    H   1.0     0.293076     0.500759     0.068790  Biso 1.000000     H
    H   1.0     0.792550     0.503011     0.067055  Biso 1.000000     H
    H   1.0     0.282972     0.602822    -0.004466  Biso 1.000000     H
    H   1.0     0.782076     0.604868    -0.006283  Biso 1.000000     H
    H   1.0     0.290535     0.010299     0.430270  Biso 1.000000     H
    H   1.0     0.790518     0.011266     0.429986  Biso 1.000000     H
    H   1.0     0.286238     0.900862     0.498302  Biso 1.000000     H
    H   1.0     0.786335     0.901673     0.497885  Biso 1.000000     H
    H   1.0     0.233855     0.000000     0.308351  Biso 1.000000     H
    H   1.0     0.733660     0.000000     0.308174  Biso 1.000000     H
    H   1.0     0.191687     0.806016     0.509299  Biso 1.000000     H
    H   1.0     0.692124     0.805946     0.508578  Biso 1.000000     H
    H   1.0     0.160114     0.922834     0.229594  Biso 1.000000     H
    H   1.0     0.660047     0.924030     0.229294  Biso 1.000000     H
    H   1.0     0.117207     0.730973     0.423447  Biso 1.000000     H
    H   1.0     0.617726     0.730854     0.422693  Biso 1.000000     H
    C   1.0     0.266859     0.661109     0.626518  Biso 1.000000     C
    C   1.0     0.766855     0.661248     0.626514  Biso 1.000000     C
    C   1.0     0.256713     0.574746     0.564617  Biso 1.000000     C
    C   1.0     0.756778     0.574820     0.564626  Biso 1.000000     C
    C   1.0     0.206857     0.563150     0.523633  Biso 1.000000     C
    C   1.0     0.706927     0.563202     0.523638  Biso 1.000000     C
    C   1.0     0.200529     0.491516     0.460352  Biso 1.000000     C
    C   1.0     0.700592     0.491570     0.460364  Biso 1.000000     C
    C   1.0     0.263455     0.975219     0.079659  Biso 1.000000     C
    C   1.0     0.762101     0.976894     0.079364  Biso 1.000000     C
    C   1.0     0.271863     0.901016     0.018693  Biso 1.000000     C
    C   1.0     0.771138     0.903384     0.018249  Biso 1.000000     C
    C   1.0     0.259318     0.922870     0.937801  Biso 1.000000     C
    C   1.0     0.758433     0.924783     0.937395  Biso 1.000000     C
    C   1.0     0.269573     0.839738     0.873805  Biso 1.000000     C
    C   1.0     0.769156     0.841171     0.873685  Biso 1.000000     C
    C   1.0     0.392537     0.787841     0.597071  Biso 1.000000     C
    C   1.0     0.892026     0.788699     0.597229  Biso 1.000000     C
    C   1.0     0.414384     0.900483     0.702679  Biso 1.000000     C
    C   1.0     0.914182     0.900962     0.702943  Biso 1.000000     C
    C   1.0     0.433790     0.829504     0.549476  Biso 1.000000     C
    C   1.0     0.933306     0.830148     0.549599  Biso 1.000000     C
    C   1.0     0.456036     0.946942     0.658323  Biso 1.000000     C
    C   1.0     0.955897     0.947173     0.658559  Biso 1.000000     C
    C   1.0     0.466860     0.910956     0.580077  Biso 1.000000     C
    C   1.0     0.966617     0.911170     0.580290  Biso 1.000000     C
    C   1.0     0.011401     0.958084     0.529854  Biso 1.000000     C
    C   1.0     0.511434     0.958415     0.529558  Biso 1.000000     C
    C   1.0     0.012684     0.535632     0.965983  Biso 1.000000     C
    C   1.0     0.512629     0.536414     0.966819  Biso 1.000000     C
    C   1.0     0.468655     0.585354     0.915304  Biso 1.000000     C
    C   1.0     0.968563     0.584659     0.914755  Biso 1.000000     C
    C   1.0     0.458618     0.552254     0.836007  Biso 1.000000     C
    C   1.0     0.958462     0.552137     0.835341  Biso 1.000000     C
    C   1.0     0.435093     0.665208     0.946794  Biso 1.000000     C
    C   1.0     0.934994     0.664220     0.946635  Biso 1.000000     C
    C   1.0     0.416805     0.599524     0.791697  Biso 1.000000     C
    C   1.0     0.916609     0.599723     0.791308  Biso 1.000000     C
    C   1.0     0.393725     0.707730     0.899278  Biso 1.000000     C
    C   1.0     0.893573     0.707093     0.899400  Biso 1.000000     C
    C   1.0     0.233093     0.338744     0.373515  Biso 1.000000     C
    C   1.0     0.733103     0.338910     0.373485  Biso 1.000000     C
    C   1.0     0.243188     0.425177     0.435395  Biso 1.000000     C
    C   1.0     0.743261     0.425268     0.435389  Biso 1.000000     C
    C   1.0     0.293041     0.436798     0.476378  Biso 1.000000     C
    C   1.0     0.793116     0.436863     0.476378  Biso 1.000000     C
    C   1.0     0.299378     0.508434     0.539647  Biso 1.000000     C
    C   1.0     0.799439     0.508488     0.539664  Biso 1.000000     C
    C   1.0     0.237898     0.023114     0.920649  Biso 1.000000     C
    C   1.0     0.736543     0.024790     0.920352  Biso 1.000000     C
    C   1.0     0.228867     0.096626     0.981762  Biso 1.000000     C
    C   1.0     0.728126     0.098983     0.981318  Biso 1.000000     C
    C   1.0     0.241581     0.075237     0.062613  Biso 1.000000     C
    C   1.0     0.740682     0.077136     0.062204  Biso 1.000000     C
    C   1.0     0.230871     0.158874     0.126312  Biso 1.000000     C
    C   1.0     0.730430     0.160275     0.126191  Biso 1.000000     C
    C   1.0     0.107902     0.210049     0.402593  Biso 1.000000     C
    C   1.0     0.607269     0.211599     0.402463  Biso 1.000000     C
    C   1.0     0.085677     0.099065     0.296122  Biso 1.000000     C
    C   1.0     0.585476     0.099642     0.296397  Biso 1.000000     C
    C   1.0     0.066606     0.168102     0.449935  Biso 1.000000     C
    C   1.0     0.565919     0.169779     0.449777  Biso 1.000000     C
    C   1.0     0.043927     0.052438     0.340188  Biso 1.000000     C
    C   1.0     0.543724     0.053039     0.340462  Biso 1.000000     C
    C   1.0     0.033234     0.087523     0.418701  Biso 1.000000     C
    C   1.0     0.532831     0.088601     0.418794  Biso 1.000000     C
    C   1.0     0.488189     0.040976     0.469090  Biso 1.000000     C
    C   1.0     0.988420     0.040208     0.468853  Biso 1.000000     C
    C   1.0     0.487723     0.464028     0.032588  Biso 1.000000     C
    C   1.0     0.987954     0.464744     0.032822  Biso 1.000000     C
    C   1.0     0.031972     0.415780     0.084270  Biso 1.000000     C
    C   1.0     0.531655     0.415093     0.084181  Biso 1.000000     C
    C   1.0     0.041911     0.448440     0.163697  Biso 1.000000     C
    C   1.0     0.541732     0.448421     0.163409  Biso 1.000000     C
    C   1.0     0.065520     0.335979     0.052702  Biso 1.000000     C
    C   1.0     0.565097     0.334932     0.052876  Biso 1.000000     C
    C   1.0     0.083564     0.400718     0.208062  Biso 1.000000     C
    C   1.0     0.583456     0.401058     0.207849  Biso 1.000000     C
    C   1.0     0.106731     0.292956     0.100264  Biso 1.000000     C
    C   1.0     0.606371     0.292299     0.100516  Biso 1.000000     C
    C   1.0     0.482477     0.162087     0.873697  Biso 1.000000     C
    C   1.0     0.980971     0.162550     0.874538  Biso 1.000000     C
    C   1.0     0.492457     0.075107     0.935555  Biso 1.000000     C
    C   1.0     0.991940     0.076248     0.936443  Biso 1.000000     C
    C   1.0     0.042204     0.065162     0.976290  Biso 1.000000     C
    C   1.0     0.542210     0.063206     0.976619  Biso 1.000000     C
    C   1.0     0.049793     0.991704     0.038256  Biso 1.000000     C
    C   1.0     0.548900     0.991223     0.039810  Biso 1.000000     C
    C   1.0     0.487953     0.476665     0.419702  Biso 1.000000     C
    C   1.0     0.987936     0.475466     0.419862  Biso 1.000000     C
    C   1.0     0.478494     0.402666     0.480456  Biso 1.000000     C
    C   1.0     0.979506     0.400537     0.480452  Biso 1.000000     C
    C   1.0     0.490328     0.423366     0.561708  Biso 1.000000     C
    C   1.0     0.991073     0.421800     0.561796  Biso 1.000000     C
    C   1.0     0.479311     0.339496     0.625124  Biso 1.000000     C
    C   1.0     0.979870     0.338456     0.625726  Biso 1.000000     C
    C   1.0     0.356470     0.287402     0.901913  Biso 1.000000     C
    C   1.0     0.855750     0.288464     0.901408  Biso 1.000000     C
    C   1.0     0.334103     0.400815     0.796400  Biso 1.000000     C
    C   1.0     0.833616     0.401373     0.795498  Biso 1.000000     C
    C   1.0     0.315374     0.328798     0.949815  Biso 1.000000     C
    C   1.0     0.814621     0.330214     0.949061  Biso 1.000000     C
    C   1.0     0.292552     0.446980     0.841066  Biso 1.000000     C
    C   1.0     0.791999     0.447818     0.839873  Biso 1.000000     C
    C   1.0     0.282159     0.410503     0.919406  Biso 1.000000     C
    C   1.0     0.781486     0.411802     0.918291  Biso 1.000000     C
    C   1.0     0.238158     0.458332     0.970613  Biso 1.000000     C
    C   1.0     0.737463     0.460010     0.969245  Biso 1.000000     C
    C   1.0     0.237152     0.035817     0.533056  Biso 1.000000     C
    C   1.0     0.737049     0.036318     0.532738  Biso 1.000000     C
    C   1.0     0.280803     0.085156     0.584562  Biso 1.000000     C
    C   1.0     0.780637     0.085658     0.584354  Biso 1.000000     C
    C   1.0     0.290548     0.052569     0.664180  Biso 1.000000     C
    C   1.0     0.790274     0.053119     0.664010  Biso 1.000000     C
    C   1.0     0.314399     0.164699     0.552693  Biso 1.000000     C
    C   1.0     0.814320     0.165078     0.552508  Biso 1.000000     C
    C   1.0     0.332136     0.100052     0.708462  Biso 1.000000     C
    C   1.0     0.831876     0.100486     0.708334  Biso 1.000000     C
    C   1.0     0.355558     0.207419     0.600186  Biso 1.000000     C
    C   1.0     0.855479     0.207697     0.600052  Biso 1.000000     C
    C   1.0     0.019005     0.837222     0.125349  Biso 1.000000     C
    C   1.0     0.516847     0.837336     0.126358  Biso 1.000000     C
    C   1.0     0.008053     0.923619     0.063511  Biso 1.000000     C
    C   1.0     0.506438     0.924500     0.064759  Biso 1.000000     C
    C   1.0     0.456563     0.936501     0.023754  Biso 1.000000     C
    C   1.0     0.957780     0.934755     0.023692  Biso 1.000000     C
    C   1.0     0.450056     0.008438     0.960457  Biso 1.000000     C
    C   1.0     0.950191     0.008214     0.961729  Biso 1.000000     C
    C   1.0     0.011875     0.522528     0.579169  Biso 1.000000     C
    C   1.0     0.512009     0.523260     0.579153  Biso 1.000000     C
    C   1.0     0.020440     0.596930     0.518257  Biso 1.000000     C
    C   1.0     0.521490     0.597084     0.518158  Biso 1.000000     C
    C   1.0     0.008681     0.575900     0.437163  Biso 1.000000     C
    C   1.0     0.509649     0.576298     0.437008  Biso 1.000000     C
    C   1.0     0.019389     0.659889     0.373554  Biso 1.000000     C
    C   1.0     0.520984     0.659785     0.373488  Biso 1.000000     C
    C   1.0     0.144261     0.711625     0.098564  Biso 1.000000     C
    C   1.0     0.643568     0.713117     0.097624  Biso 1.000000     C
    C   1.0     0.166598     0.598708     0.204372  Biso 1.000000     C
    C   1.0     0.666129     0.599791     0.203113  Biso 1.000000     C
    C   1.0     0.185293     0.669881     0.050728  Biso 1.000000     C
    C   1.0     0.684571     0.671662     0.049578  Biso 1.000000     C
    C   1.0     0.208126     0.552265     0.159805  Biso 1.000000     C
    C   1.0     0.707597     0.553586     0.158312  Biso 1.000000     C
    C   1.0     0.218491     0.588286     0.081342  Biso 1.000000     C
    C   1.0     0.717850     0.590011     0.079917  Biso 1.000000     C
    C   1.0     0.262475     0.540201     0.030235  Biso 1.000000     C
    C   1.0     0.761790     0.542179     0.028611  Biso 1.000000     C
    C   1.0     0.262547     0.963557     0.467806  Biso 1.000000     C
    C   1.0     0.762575     0.964310     0.467438  Biso 1.000000     C
    C   1.0     0.218914     0.914397     0.416165  Biso 1.000000     C
    C   1.0     0.719024     0.915061     0.415716  Biso 1.000000     C
    C   1.0     0.209440     0.946815     0.336434  Biso 1.000000     C
    C   1.0     0.709397     0.947844     0.336114  Biso 1.000000     C
    C   1.0     0.185078     0.835203     0.447986  Biso 1.000000     C
    C   1.0     0.685403     0.835412     0.447363  Biso 1.000000     C
    C   1.0     0.167878     0.899499     0.292003  Biso 1.000000     C
    C   1.0     0.667887     0.900445     0.291626  Biso 1.000000     C
    C   1.0     0.143974     0.792589     0.400327  Biso 1.000000     C
    C   1.0     0.644333     0.792771     0.399670  Biso 1.000000     C
    N   1.0     0.382616     0.822102     0.672929  Biso 1.000000     N
    N   1.0     0.882271     0.822814     0.673175  Biso 1.000000     N
    N   1.0     0.384318     0.675826     0.822569  Biso 1.000000     N
    N   1.0     0.884135     0.675789     0.822552  Biso 1.000000     N
    N   1.0     0.117629     0.176803     0.326411  Biso 1.000000     N
    N   1.0     0.617263     0.177744     0.326522  Biso 1.000000     N
    N   1.0     0.115998     0.324359     0.177136  Biso 1.000000     N
    N   1.0     0.615813     0.324413     0.177164  Biso 1.000000     N
    N   1.0     0.366055     0.322274     0.826019  Biso 1.000000     N
    N   1.0     0.865485     0.322942     0.825457  Biso 1.000000     N
    N   1.0     0.364661     0.176021     0.677217  Biso 1.000000     N
    N   1.0     0.864497     0.176302     0.677096  Biso 1.000000     N
    N   1.0     0.134670     0.677152     0.174562  Biso 1.000000     N
    N   1.0     0.634137     0.678317     0.173573  Biso 1.000000     N
    N   1.0     0.135146     0.823825     0.323196  Biso 1.000000     N
    N   1.0     0.635337     0.824375     0.322660  Biso 1.000000     N
    O   1.0     0.293812     0.630432     0.690112  Biso 1.000000     O
    O   1.0     0.793783     0.630686     0.690169  Biso 1.000000     O
    O   1.0     0.252289     0.753243     0.611072  Biso 1.000000     O
    O   1.0     0.752234     0.753337     0.611029  Biso 1.000000     O
    O   1.0     0.301008     0.870805     0.815408  Biso 1.000000     O
    O   1.0     0.800801     0.871790     0.815420  Biso 1.000000     O
    O   1.0     0.250112     0.749653     0.881908  Biso 1.000000     O
    O   1.0     0.749966     0.750865     0.882079  Biso 1.000000     O
    O   1.0     0.206170     0.369317     0.309861  Biso 1.000000     O
    O   1.0     0.706172     0.369602     0.309877  Biso 1.000000     O
    O   1.0     0.247696     0.246644     0.389008  Biso 1.000000     O
    O   1.0     0.747648     0.246763     0.388948  Biso 1.000000     O
    O   1.0     0.199224     0.128272     0.184582  Biso 1.000000     O
    O   1.0     0.698983     0.129211     0.184571  Biso 1.000000     O
    O   1.0     0.250061     0.249172     0.117894  Biso 1.000000     O
    O   1.0     0.749897     0.250353     0.118096  Biso 1.000000     O
    O   1.0     0.455476     0.132054     0.810123  Biso 1.000000     O
    O   1.0     0.953830     0.131361     0.811424  Biso 1.000000     O
    O   1.0     0.497342     0.253829     0.889130  Biso 1.000000     O
    O   1.0     0.995413     0.254777     0.889167  Biso 1.000000     O
    O   1.0     0.448718     0.370776     0.684365  Biso 1.000000     O
    O   1.0     0.948849     0.370592     0.684247  Biso 1.000000     O
    O   1.0     0.497472     0.248557     0.615592  Biso 1.000000     O
    O   1.0     0.998008     0.247279     0.617425  Biso 1.000000     O
    O   1.0     0.046175     0.868286     0.188474  Biso 1.000000     O
    O   1.0     0.544110     0.867327     0.189689  Biso 1.000000     O
    O   1.0     0.004523     0.745040     0.110697  Biso 1.000000     O
    O   1.0     0.502188     0.745521     0.110826  Biso 1.000000     O
    O   1.0     0.051242     0.629275     0.315554  Biso 1.000000     O
    O   1.0     0.552601     0.628540     0.315439  Biso 1.000000     O
    O   1.0     0.000021     0.750060     0.381864  Biso 1.000000     O
    O   1.0     0.502211     0.750468     0.381784  Biso 1.000000     O
    F   1.0     0.162588     0.620508     0.545380  Biso 1.000000     F
    F   1.0     0.662667     0.620544     0.545386  Biso 1.000000     F
    F   1.0     0.150677     0.486014     0.424240  Biso 1.000000     F
    F   1.0     0.650723     0.486020     0.424298  Biso 1.000000     F
    F   1.0     0.277734     0.949087     0.156211  Biso 1.000000     F
    F   1.0     0.775455     0.949351     0.156031  Biso 1.000000     F
    F   1.0     0.294077     0.806126     0.038582  Biso 1.000000     F
    F   1.0     0.794131     0.809551     0.038483  Biso 1.000000     F
    F   1.0     0.337299     0.379456     0.454632  Biso 1.000000     F
    F   1.0     0.837388     0.379494     0.454641  Biso 1.000000     F
    F   1.0     0.349255     0.513982     0.575716  Biso 1.000000     F
    F   1.0     0.849297     0.513991     0.575778  Biso 1.000000     F
    F   1.0     0.224530     0.050659     0.843986  Biso 1.000000     F
    F   1.0     0.722250     0.050920     0.843806  Biso 1.000000     F
    F   1.0     0.205860     0.190456     0.961534  Biso 1.000000     F
    F   1.0     0.705896     0.193867     0.961436  Biso 1.000000     F
    F   1.0     0.085552     0.124952     0.954652  Biso 1.000000     F
    F   1.0     0.586075     0.120948     0.954627  Biso 1.000000     F
    F   1.0     0.100041     0.986076     0.072753  Biso 1.000000     F
    F   1.0     0.598906     0.985952     0.075636  Biso 1.000000     F
    F   1.0     0.474581     0.449501     0.343211  Biso 1.000000     F
    F   1.0     0.974542     0.449102     0.343242  Biso 1.000000     F
    F   1.0     0.455862     0.309407     0.458507  Biso 1.000000     F
    F   1.0     0.958208     0.305871     0.458517  Biso 1.000000     F
    F   1.0     0.412313     0.879251     0.045433  Biso 1.000000     F
    F   1.0     0.914424     0.875029     0.045367  Biso 1.000000     F
    F   1.0     0.400310     0.013938     0.924158  Biso 1.000000     F
    F   1.0     0.899936     0.013922     0.927273  Biso 1.000000     F
    F   1.0     0.025260     0.550225     0.655751  Biso 1.000000     F
    F   1.0     0.525341     0.550407     0.655841  Biso 1.000000     F
    F   1.0     0.042011     0.691632     0.538780  Biso 1.000000     F
    F   1.0     0.544202     0.690761     0.538664  Biso 1.000000     F
   Zn   1.0     0.326698     0.750012     0.749711  Biso 1.000000    Zn
   Zn   1.0     0.826536     0.750362     0.749937  Biso 1.000000    Zn
   Zn   1.0     0.173438     0.249687     0.250038  Biso 1.000000    Zn
   Zn   1.0     0.673304     0.250068     0.250226  Biso 1.000000    Zn
   Zn   1.0     0.421717     0.250375     0.749852  Biso 1.000000    Zn
   Zn   1.0     0.921512     0.250496     0.749963  Biso 1.000000    Zn
   Zn   1.0     0.078490     0.749354     0.249997  Biso 1.000000    Zn
   Zn   1.0     0.578461     0.749803     0.249945  Biso 1.000000    Zn
