#======================================================================

# CRYSTAL DATA

#----------------------------------------------------------------------

data_VESTA_phase_1


_pd_phase_name                         MOF
_cell_length_a                         22.06600
_cell_length_b                         18.45900
_cell_length_c                         19.05900
_cell_angle_alpha                      108.72500
_cell_angle_beta                       89.99200
_cell_angle_gamma                      90.09900
_symmetry_space_group_name_H-M         "P 1"
_symmetry_Int_Tables_number            1

loop_
_symmetry_equiv_pos_as_xyz
   "x, y, z"

loop_
   _atom_site_label
   _atom_site_occupancy
   _atom_site_fract_x
   _atom_site_fract_y
   _atom_site_fract_z
   _atom_site_adp_type
   _atom_site_B_iso_or_equiv
   _atom_site_type_symbol
    H   1.0     0.241009     0.381033     0.335383  Biso 1.000000     H
    H   1.0     0.740609     0.381433     0.335433  Biso 1.000000     H
    H   1.0     0.264716     0.460758     0.237120  Biso 1.000000     H
    H   1.0     0.764651     0.460934     0.237110  Biso 1.000000     H
    H   1.0     0.448827     0.299063     0.293864  Biso 1.000000     H
    H   1.0     0.948553     0.300271     0.296037  Biso 1.000000     H
    H   1.0     0.463354     0.337211     0.220837  Biso 1.000000     H
    H   1.0     0.963010     0.336295     0.221548  Biso 1.000000     H
    H   1.0     0.472334     0.395246     0.314304  Biso 1.000000     H
    H   1.0     0.972141     0.396197     0.314377  Biso 1.000000     H
    H   1.0     0.412988     0.396294     0.152766  Biso 1.000000     H
    H   1.0     0.913297     0.396247     0.153553  Biso 1.000000     H
    H   1.0     0.353522     0.460109     0.154652  Biso 1.000000     H
    H   1.0     0.853648     0.459532     0.154515  Biso 1.000000     H
    H   1.0     0.405744     0.565151     0.248749  Biso 1.000000     H
    H   1.0     0.905209     0.565338     0.248703  Biso 1.000000     H
    H   1.0     0.456631     0.501015     0.269306  Biso 1.000000     H
    H   1.0     0.956408     0.501749     0.269642  Biso 1.000000     H
    H   1.0     0.004684     0.469261     0.146173  Biso 1.000000     H
    H   1.0     0.504821     0.468673     0.145886  Biso 1.000000     H
    H   1.0     0.009784     0.567588     0.196778  Biso 1.000000     H
    H   1.0     0.510247     0.566950     0.196620  Biso 1.000000     H
    H   1.0     0.435480     0.425102     0.032047  Biso 1.000000     H
    H   1.0     0.935341     0.425249     0.032135  Biso 1.000000     H
    H   1.0     0.391472     0.507233     0.941927  Biso 1.000000     H
    H   1.0     0.891400     0.507105     0.941789  Biso 1.000000     H
    H   1.0     0.452753     0.731369     0.137138  Biso 1.000000     H
    H   1.0     0.951724     0.731623     0.137263  Biso 1.000000     H
    H   1.0     0.439644     0.691120     0.209397  Biso 1.000000     H
    H   1.0     0.939111     0.691133     0.209461  Biso 1.000000     H
    H   1.0     0.011635     0.684296     0.167631  Biso 1.000000     H
    H   1.0     0.512270     0.683697     0.167786  Biso 1.000000     H
    H   1.0     0.366345     0.994377     0.055275  Biso 1.000000     H
    H   1.0     0.866147     0.994520     0.054759  Biso 1.000000     H
    H   1.0     0.342294     0.106614     0.167208  Biso 1.000000     H
    H   1.0     0.841572     0.106774     0.166435  Biso 1.000000     H
    H   1.0     0.387513     0.974179     0.307869  Biso 1.000000     H
    H   1.0     0.886363     0.974727     0.307604  Biso 1.000000     H
    H   1.0     0.410761     0.861459     0.195787  Biso 1.000000     H
    H   1.0     0.909952     0.861902     0.195751  Biso 1.000000     H
    H   1.0     0.105041     0.784028     0.846837  Biso 1.000000     H
    H   1.0     0.604649     0.784856     0.847625  Biso 1.000000     H
    H   1.0     0.217764     0.776514     0.843537  Biso 1.000000     H
    H   1.0     0.717450     0.777437     0.844100  Biso 1.000000     H
    H   1.0     0.216327     0.692806     0.029088  Biso 1.000000     H
    H   1.0     0.716385     0.692522     0.028866  Biso 1.000000     H
    H   1.0     0.102413     0.697319     0.030593  Biso 1.000000     H
    H   1.0     0.602438     0.696964     0.030620  Biso 1.000000     H
    H   1.0     0.009227     0.881355     0.835070  Biso 1.000000     H
    H   1.0     0.509633     0.881347     0.835291  Biso 1.000000     H
    H   1.0     0.485698     0.960835     0.736996  Biso 1.000000     H
    H   1.0     0.985341     0.961106     0.736950  Biso 1.000000     H
    H   1.0     0.301631     0.799386     0.795462  Biso 1.000000     H
    H   1.0     0.801063     0.799865     0.795092  Biso 1.000000     H
    H   1.0     0.287261     0.835545     0.721047  Biso 1.000000     H
    H   1.0     0.786454     0.837298     0.721616  Biso 1.000000     H
    H   1.0     0.278127     0.895244     0.813886  Biso 1.000000     H
    H   1.0     0.777792     0.895988     0.814924  Biso 1.000000     H
    H   1.0     0.336803     0.896001     0.653417  Biso 1.000000     H
    H   1.0     0.836738     0.896504     0.653254  Biso 1.000000     H
    H   1.0     0.396644     0.959260     0.654332  Biso 1.000000     H
    H   1.0     0.896345     0.960245     0.654762  Biso 1.000000     H
    H   1.0     0.345545     0.064999     0.748707  Biso 1.000000     H
    H   1.0     0.844514     0.065465     0.748830  Biso 1.000000     H
    H   1.0     0.294317     0.001399     0.769885  Biso 1.000000     H
    H   1.0     0.793456     0.001436     0.769596  Biso 1.000000     H
    H   1.0     0.245545     0.969019     0.646647  Biso 1.000000     H
    H   1.0     0.745201     0.968747     0.646137  Biso 1.000000     H
    H   1.0     0.240715     0.067259     0.697493  Biso 1.000000     H
    H   1.0     0.739979     0.067041     0.696687  Biso 1.000000     H
    H   1.0     0.314746     0.925392     0.532462  Biso 1.000000     H
    H   1.0     0.814217     0.925036     0.532136  Biso 1.000000     H
    H   1.0     0.358011     0.007584     0.441925  Biso 1.000000     H
    H   1.0     0.858252     0.006984     0.441750  Biso 1.000000     H
    H   1.0     0.297531     0.231585     0.637505  Biso 1.000000     H
    H   1.0     0.798082     0.231327     0.637148  Biso 1.000000     H
    H   1.0     0.310863     0.191330     0.709698  Biso 1.000000     H
    H   1.0     0.811043     0.191003     0.709369  Biso 1.000000     H
    H   1.0     0.238116     0.183707     0.668331  Biso 1.000000     H
    H   1.0     0.738384     0.183759     0.667835  Biso 1.000000     H
    H   1.0     0.383346     0.494523     0.555266  Biso 1.000000     H
    H   1.0     0.884327     0.494380     0.554938  Biso 1.000000     H
    H   1.0     0.407854     0.606717     0.667198  Biso 1.000000     H
    H   1.0     0.908348     0.606837     0.666822  Biso 1.000000     H
    H   1.0     0.361904     0.474373     0.807850  Biso 1.000000     H
    H   1.0     0.863028     0.474390     0.807604  Biso 1.000000     H
    H   1.0     0.338273     0.361691     0.695781  Biso 1.000000     H
    H   1.0     0.839776     0.361476     0.695555  Biso 1.000000     H
    H   1.0     0.145089     0.284133     0.346305  Biso 1.000000     H
    H   1.0     0.645575     0.285079     0.348480  Biso 1.000000     H
    H   1.0     0.032312     0.276628     0.343111  Biso 1.000000     H
    H   1.0     0.532726     0.278190     0.345217  Biso 1.000000     H
    H   1.0     0.033574     0.192683     0.528526  Biso 1.000000     H
    H   1.0     0.533380     0.192967     0.529778  Biso 1.000000     H
    H   1.0     0.147512     0.197115     0.529893  Biso 1.000000     H
    H   1.0     0.647343     0.196760     0.531200  Biso 1.000000     H
    H   1.0     0.490353     0.118670     0.164728  Biso 1.000000     H
    H   1.0     0.990752     0.118676     0.164976  Biso 1.000000     H
    H   1.0     0.014634     0.038917     0.263091  Biso 1.000000     H
    H   1.0     0.514280     0.039174     0.263019  Biso 1.000000     H
    H   1.0     0.198917     0.200157     0.204960  Biso 1.000000     H
    H   1.0     0.698358     0.200614     0.204562  Biso 1.000000     H
    H   1.0     0.213527     0.162711     0.278426  Biso 1.000000     H
    H   1.0     0.712724     0.164454     0.278978  Biso 1.000000     H
    H   1.0     0.222186     0.104032     0.185114  Biso 1.000000     H
    H   1.0     0.721857     0.104755     0.186139  Biso 1.000000     H
    H   1.0     0.163235     0.103507     0.346790  Biso 1.000000     H
    H   1.0     0.663167     0.104003     0.346613  Biso 1.000000     H
    H   1.0     0.103629     0.039763     0.345272  Biso 1.000000     H
    H   1.0     0.603328     0.040735     0.345683  Biso 1.000000     H
    H   1.0     0.155464     0.934548     0.251211  Biso 1.000000     H
    H   1.0     0.654445     0.935004     0.251325  Biso 1.000000     H
    H   1.0     0.206516     0.998577     0.230438  Biso 1.000000     H
    H   1.0     0.705663     0.998609     0.230141  Biso 1.000000     H
    H   1.0     0.254780     0.031273     0.353892  Biso 1.000000     H
    H   1.0     0.754436     0.031009     0.353381  Biso 1.000000     H
    H   1.0     0.260003     0.932979     0.303344  Biso 1.000000     H
    H   1.0     0.759279     0.932769     0.302539  Biso 1.000000     H
    H   1.0     0.185787     0.074986     0.467906  Biso 1.000000     H
    H   1.0     0.685260     0.074630     0.467575  Biso 1.000000     H
    H   1.0     0.141754     0.993041     0.558297  Biso 1.000000     H
    H   1.0     0.641986     0.992441     0.558111  Biso 1.000000     H
    H   1.0     0.201909     0.768693     0.362894  Biso 1.000000     H
    H   1.0     0.702465     0.768437     0.362535  Biso 1.000000     H
    H   1.0     0.188939     0.809011     0.290671  Biso 1.000000     H
    H   1.0     0.689138     0.808685     0.290334  Biso 1.000000     H
    H   1.0     0.261601     0.816265     0.332201  Biso 1.000000     H
    H   1.0     0.761881     0.816319     0.331714  Biso 1.000000     H
    H   1.0     0.115650     0.505635     0.445094  Biso 1.000000     H
    H   1.0     0.616673     0.505460     0.444759  Biso 1.000000     H
    H   1.0     0.091634     0.393177     0.333207  Biso 1.000000     H
    H   1.0     0.592175     0.393273     0.332816  Biso 1.000000     H
    H   1.0     0.136959     0.525627     0.192430  Biso 1.000000     H
    H   1.0     0.638087     0.525659     0.192189  Biso 1.000000     H
    H   1.0     0.160203     0.638542     0.304481  Biso 1.000000     H
    H   1.0     0.661704     0.638336     0.304271  Biso 1.000000     H
    H   1.0     0.354403     0.714925     0.651541  Biso 1.000000     H
    H   1.0     0.854885     0.715892     0.653731  Biso 1.000000     H
    H   1.0     0.467249     0.721851     0.654827  Biso 1.000000     H
    H   1.0     0.967663     0.723395     0.656926  Biso 1.000000     H
    H   1.0     0.466592     0.807085     0.470272  Biso 1.000000     H
    H   1.0     0.966404     0.807329     0.471503  Biso 1.000000     H
    H   1.0     0.352630     0.803255     0.468830  Biso 1.000000     H
    H   1.0     0.852465     0.802892     0.470132  Biso 1.000000     H
    H   1.0     0.259376     0.618593     0.664609  Biso 1.000000     H
    H   1.0     0.758963     0.618974     0.664634  Biso 1.000000     H
    H   1.0     0.235335     0.539089     0.762930  Biso 1.000000     H
    H   1.0     0.735251     0.539244     0.762893  Biso 1.000000     H
    H   1.0     0.051429     0.699736     0.703989  Biso 1.000000     H
    H   1.0     0.551151     0.700962     0.706156  Biso 1.000000     H
    H   1.0     0.036972     0.663719     0.778483  Biso 1.000000     H
    H   1.0     0.536616     0.662817     0.779184  Biso 1.000000     H
    H   1.0     0.027843     0.603810     0.685656  Biso 1.000000     H
    H   1.0     0.527642     0.604780     0.685717  Biso 1.000000     H
    H   1.0     0.086686     0.603765     0.846480  Biso 1.000000     H
    H   1.0     0.586979     0.603727     0.847254  Biso 1.000000     H
    H   1.0     0.146335     0.540481     0.845519  Biso 1.000000     H
    H   1.0     0.646448     0.539919     0.845377  Biso 1.000000     H
    H   1.0     0.094778     0.434675     0.751328  Biso 1.000000     H
    H   1.0     0.594234     0.434868     0.751278  Biso 1.000000     H
    H   1.0     0.043578     0.498261     0.730389  Biso 1.000000     H
    H   1.0     0.543340     0.498997     0.730722  Biso 1.000000     H
    H   1.0     0.495155     0.531338     0.854143  Biso 1.000000     H
    H   1.0     0.995297     0.530745     0.853853  Biso 1.000000     H
    H   1.0     0.489733     0.433059     0.803411  Biso 1.000000     H
    H   1.0     0.990204     0.432417     0.803249  Biso 1.000000     H
    H   1.0     0.064631     0.574765     0.967897  Biso 1.000000     H
    H   1.0     0.564496     0.574915     0.967982  Biso 1.000000     H
    H   1.0     0.108566     0.492918     0.058254  Biso 1.000000     H
    H   1.0     0.608500     0.492790     0.058109  Biso 1.000000     H
    H   1.0     0.048264     0.268390     0.862783  Biso 1.000000     H
    H   1.0     0.547233     0.268648     0.862897  Biso 1.000000     H
    H   1.0     0.060877     0.308872     0.790580  Biso 1.000000     H
    H   1.0     0.560331     0.308896     0.790635  Biso 1.000000     H
    H   1.0     0.487709     0.316315     0.832256  Biso 1.000000     H
    H   1.0     0.988352     0.315709     0.832407  Biso 1.000000     H
    H   1.0     0.133843     0.005484     0.945277  Biso 1.000000     H
    H   1.0     0.633634     0.005642     0.944755  Biso 1.000000     H
    H   1.0     0.158416     0.893238     0.833594  Biso 1.000000     H
    H   1.0     0.657687     0.893405     0.832823  Biso 1.000000     H
    H   1.0     0.113624     0.025302     0.692442  Biso 1.000000     H
    H   1.0     0.612475     0.025843     0.692161  Biso 1.000000     H
    H   1.0     0.090036     0.138119     0.804301  Biso 1.000000     H
    H   1.0     0.589225     0.138563     0.804243  Biso 1.000000     H
    H   1.0     0.395332     0.215157     0.152411  Biso 1.000000     H
    H   1.0     0.894940     0.215997     0.153198  Biso 1.000000     H
    H   1.0     0.282530     0.222576     0.155935  Biso 1.000000     H
    H   1.0     0.782217     0.223509     0.156492  Biso 1.000000     H
    H   1.0     0.283599     0.307495     0.971171  Biso 1.000000     H
    H   1.0     0.783661     0.307209     0.970934  Biso 1.000000     H
    H   1.0     0.397545     0.303054     0.969419  Biso 1.000000     H
    H   1.0     0.897576     0.302699     0.969437  Biso 1.000000     H
    C   1.0     0.282916     0.387943     0.308655  Biso 1.000000     C
    C   1.0     0.782605     0.388255     0.308832  Biso 1.000000     C
    C   1.0     0.294210     0.427787     0.260669  Biso 1.000000     C
    C   1.0     0.794061     0.428023     0.260821  Biso 1.000000     C
    C   1.0     0.379720     0.372634     0.280330  Biso 1.000000     C
    C   1.0     0.879479     0.372954     0.280908  Biso 1.000000     C
    C   1.0     0.444284     0.349906     0.276593  Biso 1.000000     C
    C   1.0     0.944042     0.350306     0.277491  Biso 1.000000     C
    C   1.0     0.387719     0.445042     0.189348  Biso 1.000000     C
    C   1.0     0.887750     0.445011     0.189666  Biso 1.000000     C
    C   1.0     0.431197     0.511793     0.224042  Biso 1.000000     C
    C   1.0     0.930911     0.512137     0.224227  Biso 1.000000     C
    C   1.0     0.478263     0.521323     0.168512  Biso 1.000000     C
    C   1.0     0.977923     0.521780     0.168682  Biso 1.000000     C
    C   1.0     0.431310     0.485879     0.040768  Biso 1.000000     C
    C   1.0     0.931111     0.486012     0.040809  Biso 1.000000     C
    C   1.0     0.410731     0.526673     0.997084  Biso 1.000000     C
    C   1.0     0.910538     0.526685     0.997007  Biso 1.000000     C
    C   1.0     0.444734     0.610709     0.099265  Biso 1.000000     C
    C   1.0     0.944227     0.610910     0.099249  Biso 1.000000     C
    C   1.0     0.463297     0.683014     0.156609  Biso 1.000000     C
    C   1.0     0.962601     0.683289     0.156619  Biso 1.000000     C
    C   1.0     0.402238     0.853069     0.051046  Biso 1.000000     C
    C   1.0     0.902003     0.853206     0.051045  Biso 1.000000     C
    C   1.0     0.389755     0.920976     0.118690  Biso 1.000000     C
    C   1.0     0.889284     0.921268     0.118441  Biso 1.000000     C
    C   1.0     0.370607     0.990426     0.110861  Biso 1.000000     C
    C   1.0     0.870165     0.990632     0.110394  Biso 1.000000     C
    C   1.0     0.357226     0.052691     0.173047  Biso 1.000000     C
    C   1.0     0.856504     0.052928     0.172456  Biso 1.000000     C
    C   1.0     0.362845     0.047188     0.244483  Biso 1.000000     C
    C   1.0     0.861860     0.047526     0.243957  Biso 1.000000     C
    C   1.0     0.348414     0.114710     0.311676  Biso 1.000000     C
    C   1.0     0.847255     0.115006     0.311117  Biso 1.000000     C
    C   1.0     0.382579     0.977889     0.252244  Biso 1.000000     C
    C   1.0     0.881613     0.978320     0.251918  Biso 1.000000     C
    C   1.0     0.395780     0.915490     0.190092  Biso 1.000000     C
    C   1.0     0.895019     0.915888     0.189913  Biso 1.000000     C
    C   1.0     0.028534     0.737906     0.935633  Biso 1.000000     C
    C   1.0     0.528552     0.737614     0.936015  Biso 1.000000     C
    C   1.0     0.096634     0.740330     0.938441  Biso 1.000000     C
    C   1.0     0.596555     0.740550     0.938855  Biso 1.000000     C
    C   1.0     0.129519     0.764078     0.886719  Biso 1.000000     C
    C   1.0     0.629250     0.764724     0.887294  Biso 1.000000     C
    C   1.0     0.192522     0.760218     0.885146  Biso 1.000000     C
    C   1.0     0.692236     0.760891     0.885573  Biso 1.000000     C
    C   1.0     0.224071     0.734216     0.936290  Biso 1.000000     C
    C   1.0     0.723828     0.734498     0.936405  Biso 1.000000     C
    C   1.0     0.292243     0.730238     0.934894  Biso 1.000000     C
    C   1.0     0.791924     0.730375     0.934698  Biso 1.000000     C
    C   1.0     0.191257     0.712284     0.989289  Biso 1.000000     C
    C   1.0     0.691199     0.712254     0.989327  Biso 1.000000     C
    C   1.0     0.128220     0.714905     0.990047  Biso 1.000000     C
    C   1.0     0.628191     0.714846     0.990226  Biso 1.000000     C
    C   1.0     0.467659     0.888022     0.808625  Biso 1.000000     C
    C   1.0     0.967220     0.888302     0.808570  Biso 1.000000     C
    C   1.0     0.456256     0.927780     0.760624  Biso 1.000000     C
    C   1.0     0.955850     0.928172     0.760658  Biso 1.000000     C
    C   1.0     0.370794     0.872362     0.780544  Biso 1.000000     C
    C   1.0     0.870284     0.873091     0.780768  Biso 1.000000     C
    C   1.0     0.306217     0.849487     0.777001  Biso 1.000000     C
    C   1.0     0.805650     0.850438     0.777375  Biso 1.000000     C
    C   1.0     0.362560     0.944685     0.689527  Biso 1.000000     C
    C   1.0     0.862189     0.945314     0.689653  Biso 1.000000     C
    C   1.0     0.319650     0.011815     0.724338  Biso 1.000000     C
    C   1.0     0.818916     0.012081     0.724254  Biso 1.000000     C
    C   1.0     0.272409     0.021539     0.669118  Biso 1.000000     C
    C   1.0     0.771869     0.021421     0.668656  Biso 1.000000     C
    C   1.0     0.318870     0.986185     0.541135  Biso 1.000000     C
    C   1.0     0.818582     0.985802     0.540788  Biso 1.000000     C
    C   1.0     0.339021     0.026991     0.497200  Biso 1.000000     C
    C   1.0     0.839158     0.026519     0.496969  Biso 1.000000     C
    C   1.0     0.305453     0.110951     0.599563  Biso 1.000000     C
    C   1.0     0.805606     0.110647     0.599225  Biso 1.000000     C
    C   1.0     0.287058     0.183186     0.656993  Biso 1.000000     C
    C   1.0     0.787354     0.182980     0.656610  Biso 1.000000     C
    C   1.0     0.347117     0.353160     0.551056  Biso 1.000000     C
    C   1.0     0.848391     0.353010     0.550841  Biso 1.000000     C
    C   1.0     0.359615     0.421151     0.618675  Biso 1.000000     C
    C   1.0     0.860874     0.420999     0.618430  Biso 1.000000     C
    C   1.0     0.379019     0.490583     0.610853  Biso 1.000000     C
    C   1.0     0.880042     0.490488     0.610545  Biso 1.000000     C
    C   1.0     0.392664     0.552834     0.673043  Biso 1.000000     C
    C   1.0     0.893408     0.552879     0.672706  Biso 1.000000     C
    C   1.0     0.387024     0.547313     0.744472  Biso 1.000000     C
    C   1.0     0.887762     0.547393     0.744145  Biso 1.000000     C
    C   1.0     0.401891     0.614662     0.811730  Biso 1.000000     C
    C   1.0     0.902171     0.614955     0.811359  Biso 1.000000     C
    C   1.0     0.366903     0.478058     0.752222  Biso 1.000000     C
    C   1.0     0.867984     0.478034     0.751957  Biso 1.000000     C
    C   1.0     0.353472     0.415693     0.690078  Biso 1.000000     C
    C   1.0     0.854792     0.415543     0.689837  Biso 1.000000     C
    C   1.0     0.221349     0.237339     0.434868  Biso 1.000000     C
    C   1.0     0.721542     0.237508     0.436570  Biso 1.000000     C
    C   1.0     0.153328     0.240250     0.437803  Biso 1.000000     C
    C   1.0     0.653502     0.240530     0.439545  Biso 1.000000     C
    C   1.0     0.120557     0.264167     0.386185  Biso 1.000000     C
    C   1.0     0.620886     0.264947     0.388135  Biso 1.000000     C
    C   1.0     0.057549     0.260319     0.384672  Biso 1.000000     C
    C   1.0     0.557879     0.261423     0.386563  Biso 1.000000     C
    C   1.0     0.025988     0.234185     0.435769  Biso 1.000000     C
    C   1.0     0.526102     0.235161     0.437431  Biso 1.000000     C
    C   1.0     0.457942     0.231436     0.435636  Biso 1.000000     C
    C   1.0     0.957847     0.229978     0.434313  Biso 1.000000     C
    C   1.0     0.058703     0.212233     0.488761  Biso 1.000000     C
    C   1.0     0.558643     0.212626     0.490179  Biso 1.000000     C
    C   1.0     0.121722     0.214808     0.489438  Biso 1.000000     C
    C   1.0     0.621695     0.214867     0.490898  Biso 1.000000     C
    C   1.0     0.032759     0.111724     0.191475  Biso 1.000000     C
    C   1.0     0.532325     0.111991     0.191396  Biso 1.000000     C
    C   1.0     0.044127     0.071852     0.239385  Biso 1.000000     C
    C   1.0     0.543725     0.072229     0.239394  Biso 1.000000     C
    C   1.0     0.129695     0.126929     0.219276  Biso 1.000000     C
    C   1.0     0.629190     0.127643     0.219479  Biso 1.000000     C
    C   1.0     0.194329     0.149580     0.222668  Biso 1.000000     C
    C   1.0     0.693769     0.150514     0.223023  Biso 1.000000     C
    C   1.0     0.137786     0.054698     0.310387  Biso 1.000000     C
    C   1.0     0.637417     0.055318     0.310496  Biso 1.000000     C
    C   1.0     0.181061     0.987933     0.275784  Biso 1.000000     C
    C   1.0     0.680334     0.988194     0.275690  Biso 1.000000     C
    C   1.0     0.228114     0.978597     0.331378  Biso 1.000000     C
    C   1.0     0.727578     0.978483     0.330912  Biso 1.000000     C
    C   1.0     0.181414     0.014219     0.459253  Biso 1.000000     C
    C   1.0     0.681129     0.013837     0.458901  Biso 1.000000     C
    C   1.0     0.160842     0.973505     0.503075  Biso 1.000000     C
    C   1.0     0.660974     0.973033     0.502835  Biso 1.000000     C
    C   1.0     0.194381     0.889373     0.400813  Biso 1.000000     C
    C   1.0     0.694538     0.889070     0.400469  Biso 1.000000     C
    C   1.0     0.212631     0.817039     0.343428  Biso 1.000000     C
    C   1.0     0.712938     0.816835     0.343044  Biso 1.000000     C
    C   1.0     0.151581     0.647007     0.449191  Biso 1.000000     C
    C   1.0     0.652857     0.646852     0.448985  Biso 1.000000     C
    C   1.0     0.139104     0.579017     0.381602  Biso 1.000000     C
    C   1.0     0.640374     0.578859     0.381364  Biso 1.000000     C
    C   1.0     0.119934     0.509529     0.389487  Biso 1.000000     C
    C   1.0     0.620988     0.509415     0.389177  Biso 1.000000     C
    C   1.0     0.106575     0.447136     0.327326  Biso 1.000000     C
    C   1.0     0.607346     0.447169     0.326981  Biso 1.000000     C
    C   1.0     0.112220     0.452624     0.255887  Biso 1.000000     C
    C   1.0     0.612982     0.452700     0.255555  Biso 1.000000     C
    C   1.0     0.097815     0.385061     0.188674  Biso 1.000000     C
    C   1.0     0.598104     0.385358     0.188296  Biso 1.000000     C
    C   1.0     0.132000     0.521982     0.248076  Biso 1.000000     C
    C   1.0     0.633084     0.521966     0.247814  Biso 1.000000     C
    C   1.0     0.145187     0.584474     0.310196  Biso 1.000000     C
    C   1.0     0.646512     0.584326     0.309964  Biso 1.000000     C
    C   1.0     0.278433     0.762492     0.563448  Biso 1.000000     C
    C   1.0     0.778629     0.762678     0.565157  Biso 1.000000     C
    C   1.0     0.346474     0.759478     0.560480  Biso 1.000000     C
    C   1.0     0.846649     0.759760     0.562222  Biso 1.000000     C
    C   1.0     0.379091     0.735067     0.611893  Biso 1.000000     C
    C   1.0     0.879419     0.735857     0.613851  Biso 1.000000     C
    C   1.0     0.442098     0.738608     0.613474  Biso 1.000000     C
    C   1.0     0.942427     0.739700     0.615361  Biso 1.000000     C
    C   1.0     0.473873     0.764888     0.562617  Biso 1.000000     C
    C   1.0     0.973989     0.765831     0.564262  Biso 1.000000     C
    C   1.0     0.042130     0.770045     0.565722  Biso 1.000000     C
    C   1.0     0.542034     0.768609     0.564407  Biso 1.000000     C
    C   1.0     0.441331     0.787414     0.509864  Biso 1.000000     C
    C   1.0     0.941274     0.787780     0.511268  Biso 1.000000     C
    C   1.0     0.378279     0.785152     0.509134  Biso 1.000000     C
    C   1.0     0.878256     0.785205     0.510590  Biso 1.000000     C
    C   1.0     0.217380     0.611768     0.691208  Biso 1.000000     C
    C   1.0     0.717056     0.612067     0.691364  Biso 1.000000     C
    C   1.0     0.205924     0.571998     0.739217  Biso 1.000000     C
    C   1.0     0.705760     0.572224     0.739350  Biso 1.000000     C
    C   1.0     0.120505     0.627060     0.719126  Biso 1.000000     C
    C   1.0     0.620254     0.627390     0.719698  Biso 1.000000     C
    C   1.0     0.055941     0.649704     0.722540  Biso 1.000000     C
    C   1.0     0.555691     0.650120     0.723429  Biso 1.000000     C
    C   1.0     0.112234     0.555002     0.810367  Biso 1.000000     C
    C   1.0     0.612251     0.554979     0.810676  Biso 1.000000     C
    C   1.0     0.069075     0.487875     0.775805  Biso 1.000000     C
    C   1.0     0.568777     0.488223     0.775986  Biso 1.000000     C
    C   1.0     0.022061     0.478228     0.831347  Biso 1.000000     C
    C   1.0     0.521715     0.478689     0.831519  Biso 1.000000     C
    C   1.0     0.068864     0.514002     0.959225  Biso 1.000000     C
    C   1.0     0.568668     0.514139     0.959263  Biso 1.000000     C
    C   1.0     0.089434     0.473334     0.003033  Biso 1.000000     C
    C   1.0     0.589244     0.473347     0.002950  Biso 1.000000     C
    C   1.0     0.055756     0.389103     0.900789  Biso 1.000000     C
    C   1.0     0.555246     0.389307     0.900768  Biso 1.000000     C
    C   1.0     0.037386     0.316720     0.843422  Biso 1.000000     C
    C   1.0     0.536684     0.317001     0.843426  Biso 1.000000     C
    C   1.0     0.097982     0.146802     0.949004  Biso 1.000000     C
    C   1.0     0.597741     0.146949     0.948984  Biso 1.000000     C
    C   1.0     0.110703     0.078744     0.881605  Biso 1.000000     C
    C   1.0     0.610223     0.079042     0.881340  Biso 1.000000     C
    C   1.0     0.129824     0.009378     0.889644  Biso 1.000000     C
    C   1.0     0.629375     0.009594     0.889169  Biso 1.000000     C
    C   1.0     0.143483     0.947086     0.827578  Biso 1.000000     C
    C   1.0     0.642752     0.947327     0.826984  Biso 1.000000     C
    C   1.0     0.138126     0.952493     0.756080  Biso 1.000000     C
    C   1.0     0.637138     0.952832     0.755548  Biso 1.000000     C
    C   1.0     0.152727     0.885015     0.688915  Biso 1.000000     C
    C   1.0     0.651569     0.885309     0.688357  Biso 1.000000     C
    C   1.0     0.118374     0.021703     0.748125  Biso 1.000000     C
    C   1.0     0.617404     0.022132     0.747787  Biso 1.000000     C
    C   1.0     0.104970     0.084132     0.810135  Biso 1.000000     C
    C   1.0     0.604206     0.084532     0.809939  Biso 1.000000     C
    C   1.0     0.471430     0.262405     0.064026  Biso 1.000000     C
    C   1.0     0.971449     0.262112     0.064400  Biso 1.000000     C
    C   1.0     0.403427     0.259468     0.061185  Biso 1.000000     C
    C   1.0     0.903350     0.259687     0.061589  Biso 1.000000     C
    C   1.0     0.370732     0.235290     0.112743  Biso 1.000000     C
    C   1.0     0.870463     0.235943     0.113313  Biso 1.000000     C
    C   1.0     0.307745     0.239125     0.114463  Biso 1.000000     C
    C   1.0     0.807461     0.239802     0.114882  Biso 1.000000     C
    C   1.0     0.276154     0.265521     0.063633  Biso 1.000000     C
    C   1.0     0.775914     0.265800     0.063733  Biso 1.000000     C
    C   1.0     0.208058     0.269645     0.065339  Biso 1.000000     C
    C   1.0     0.707742     0.269773     0.065127  Biso 1.000000     C
    C   1.0     0.308784     0.287764     0.010711  Biso 1.000000     C
    C   1.0     0.808729     0.287731     0.010735  Biso 1.000000     C
    C   1.0     0.371792     0.285170     0.009812  Biso 1.000000     C
    C   1.0     0.871767     0.285113     0.009982  Biso 1.000000     C
    N   1.0     0.336166     0.353762     0.320444  Biso 1.000000     N
    N   1.0     0.835793     0.354119     0.320886  Biso 1.000000     N
    N   1.0     0.355407     0.418131     0.243308  Biso 1.000000     N
    N   1.0     0.855297     0.418366     0.243707  Biso 1.000000     N
    N   1.0     0.452348     0.539437     0.105340  Biso 1.000000     N
    N   1.0     0.951960     0.539691     0.105419  Biso 1.000000     N
    N   1.0     0.419390     0.604082     0.033560  Biso 1.000000     N
    N   1.0     0.919006     0.604139     0.033442  Biso 1.000000     N
    N   1.0     0.414446     0.853676     0.820588  Biso 1.000000     N
    N   1.0     0.913938     0.854164     0.820645  Biso 1.000000     N
    N   1.0     0.395026     0.917880     0.743399  Biso 1.000000     N
    N   1.0     0.894572     0.918572     0.743620  Biso 1.000000     N
    N   1.0     0.298063     0.039677     0.605790  Biso 1.000000     N
    N   1.0     0.797790     0.039408     0.605384  Biso 1.000000     N
    N   1.0     0.330417     0.104371     0.533660  Biso 1.000000     N
    N   1.0     0.830836     0.103945     0.533444  Biso 1.000000     N
    N   1.0     0.086041     0.145863     0.179403  Biso 1.000000     N
    N   1.0     0.585540     0.146335     0.179435  Biso 1.000000     N
    N   1.0     0.105405     0.081445     0.256421  Biso 1.000000     N
    N   1.0     0.604955     0.082124     0.256621  Biso 1.000000     N
    N   1.0     0.202201     0.960612     0.394655  Biso 1.000000     N
    N   1.0     0.701930     0.960345     0.394243  Biso 1.000000     N
    N   1.0     0.169152     0.896077     0.466595  Biso 1.000000     N
    N   1.0     0.669574     0.895652     0.466373  Biso 1.000000     N
    N   1.0     0.164191     0.645899     0.679150  Biso 1.000000     N
    N   1.0     0.663808     0.646258     0.679582  Biso 1.000000     N
    N   1.0     0.144688     0.581651     0.756328  Biso 1.000000     N
    N   1.0     0.644563     0.581884     0.756713  Biso 1.000000     N
    N   1.0     0.048020     0.460321     0.894615  Biso 1.000000     N
    N   1.0     0.547633     0.460579     0.894690  Biso 1.000000     N
    N   1.0     0.080973     0.395879     0.966598  Biso 1.000000     N
    N   1.0     0.580589     0.395937     0.966474  Biso 1.000000     N
    O   1.0     0.418498     0.790972     0.061679  Biso 1.000000     O
    O   1.0     0.917169     0.790951     0.062053  Biso 1.000000     O
    O   1.0     0.394836     0.862751     0.988674  Biso 1.000000     O
    O   1.0     0.895826     0.862926     0.988502  Biso 1.000000     O
    O   1.0     0.333430     0.176728     0.300842  Biso 1.000000     O
    O   1.0     0.832182     0.177029     0.300343  Biso 1.000000     O
    O   1.0     0.351901     0.103812     0.374424  Biso 1.000000     O
    O   1.0     0.850705     0.104006     0.373820  Biso 1.000000     O
    O   1.0     0.501789     0.782127     0.907314  Biso 1.000000     O
    O   1.0     0.000000     0.781610     0.905634  Biso 1.000000     O
    O   1.0     0.503461     0.688232     0.960671  Biso 1.000000     O
    O   1.0     0.000000     0.689802     0.961589  Biso 1.000000     O
    O   1.0     0.319100     0.753245     0.886787  Biso 1.000000     O
    O   1.0     0.818628     0.753942     0.886901  Biso 1.000000     O
    O   1.0     0.317674     0.704219     0.981789  Biso 1.000000     O
    O   1.0     0.817429     0.703681     0.981073  Biso 1.000000     O
    O   1.0     0.330826     0.291030     0.561691  Biso 1.000000     O
    O   1.0     0.832200     0.290860     0.561524  Biso 1.000000     O
    O   1.0     0.354599     0.362822     0.488659  Biso 1.000000     O
    O   1.0     0.855748     0.362699     0.488443  Biso 1.000000     O
    O   1.0     0.417929     0.676461     0.801036  Biso 1.000000     O
    O   1.0     0.917082     0.677095     0.800597  Biso 1.000000     O
    O   1.0     0.397729     0.603781     0.874431  Biso 1.000000     O
    O   1.0     0.898719     0.603932     0.874050  Biso 1.000000     O
    O   1.0     0.248252     0.281420     0.405712  Biso 1.000000     O
    O   1.0     0.748362     0.281731     0.407427  Biso 1.000000     O
    O   1.0     0.246293     0.188212     0.459939  Biso 1.000000     O
    O   1.0     0.746602     0.188425     0.461512  Biso 1.000000     O
    O   1.0     0.431767     0.254642     0.387272  Biso 1.000000     O
    O   1.0     0.930973     0.253151     0.386403  Biso 1.000000     O
    O   1.0     0.431887     0.205576     0.482284  Biso 1.000000     O
    O   1.0     0.932469     0.203563     0.481027  Biso 1.000000     O
    O   1.0     0.167776     0.709156     0.438508  Biso 1.000000     O
    O   1.0     0.669151     0.708983     0.438353  Biso 1.000000     O
    O   1.0     0.144231     0.637316     0.511589  Biso 1.000000     O
    O   1.0     0.645377     0.637186     0.511381  Biso 1.000000     O
    O   1.0     0.082895     0.322923     0.199435  Biso 1.000000     O
    O   1.0     0.582068     0.323557     0.198988  Biso 1.000000     O
    O   1.0     0.101264     0.396086     0.125984  Biso 1.000000     O
    O   1.0     0.602260     0.396243     0.125596  Biso 1.000000     O
    O   1.0     0.251615     0.718271     0.592595  Biso 1.000000     O
    O   1.0     0.751723     0.718594     0.594308  Biso 1.000000     O
    O   1.0     0.253374     0.811576     0.538508  Biso 1.000000     O
    O   1.0     0.753687     0.811801     0.540080  Biso 1.000000     O
    O   1.0     0.069006     0.746863     0.613625  Biso 1.000000     O
    O   1.0     0.568212     0.745415     0.612777  Biso 1.000000     O
    O   1.0     0.067505     0.796463     0.519009  Biso 1.000000     O
    O   1.0     0.568089     0.794469     0.517758  Biso 1.000000     O
    O   1.0     0.082809     0.209058     0.938004  Biso 1.000000     O
    O   1.0     0.581478     0.209046     0.938353  Biso 1.000000     O
    O   1.0     0.104161     0.137076     0.011545  Biso 1.000000     O
    O   1.0     0.605142     0.137264     0.011354  Biso 1.000000     O
    O   1.0     0.167800     0.822989     0.699684  Biso 1.000000     O
    O   1.0     0.666555     0.823293     0.699192  Biso 1.000000     O
    O   1.0     0.149278     0.896019     0.626214  Biso 1.000000     O
    O   1.0     0.648084     0.896206     0.625608  Biso 1.000000     O
    O   1.0    -0.002193     0.218403     0.094394  Biso 1.000000     O
    O   1.0     0.498193     0.217894     0.092730  Biso 1.000000     O
    O   1.0    -0.002967     0.310222     0.038453  Biso 1.000000     O
    O   1.0     0.496522     0.311788     0.039371  Biso 1.000000     O
    O   1.0     0.181353     0.246086     0.113141  Biso 1.000000     O
    O   1.0     0.680887     0.246762     0.113234  Biso 1.000000     O
    O   1.0     0.182554     0.296333     0.018960  Biso 1.000000     O
    O   1.0     0.682308     0.295787     0.018231  Biso 1.000000     O
   Zn   1.0     0.410214     0.684203     0.980469  Biso 1.000000    Zn
   Zn   1.0     0.909583     0.684300     0.980381  Biso 1.000000    Zn
   Zn   1.0     0.410043     0.783974     0.884349  Biso 1.000000    Zn
   Zn   1.0     0.909582     0.784141     0.884117  Biso 1.000000    Zn
   Zn   1.0     0.339267     0.184373     0.480301  Biso 1.000000    Zn
   Zn   1.0     0.840045     0.184106     0.480300  Biso 1.000000    Zn
   Zn   1.0     0.340983     0.284071     0.384150  Biso 1.000000    Zn
   Zn   1.0     0.840180     0.284020     0.384227  Biso 1.000000    Zn
   Zn   1.0     0.159933     0.815911     0.519736  Biso 1.000000    Zn
   Zn   1.0     0.660713     0.815647     0.519730  Biso 1.000000    Zn
   Zn   1.0     0.159800     0.715994     0.615803  Biso 1.000000    Zn
   Zn   1.0     0.658994     0.715950     0.615879  Biso 1.000000    Zn
   Zn   1.0     0.090399     0.315717     0.019662  Biso 1.000000    Zn
   Zn   1.0     0.589768     0.315815     0.019566  Biso 1.000000    Zn
   Zn   1.0     0.090400     0.215874     0.115920  Biso 1.000000    Zn
   Zn   1.0     0.589943     0.216040     0.115678  Biso 1.000000    Zn
