#======================================================================

# CRYSTAL DATA

#----------------------------------------------------------------------

data_VESTA_phase_1


_pd_phase_name                         MOF
_cell_length_a                         12.88600
_cell_length_b                         13.79300
_cell_length_c                         14.34800
_cell_angle_alpha                      66.73300
_cell_angle_beta                       67.05700
_cell_angle_gamma                      77.72000
_symmetry_space_group_name_H-M         "P 1"
_symmetry_Int_Tables_number            1

loop_
_symmetry_equiv_pos_as_xyz
   "x, y, z"

loop_
   _atom_site_label
   _atom_site_occupancy
   _atom_site_fract_x
   _atom_site_fract_y
   _atom_site_fract_z
   _atom_site_adp_type
   _atom_site_B_iso_or_equiv
   _atom_site_type_symbol
    H   1.0     0.101420     0.810510     0.319412  Biso 1.000000     H
    H   1.0     0.157255     0.837548     0.388847  Biso 1.000000     H
    H   1.0     0.024553     0.499437     0.772007  Biso 1.000000     H
    H   1.0    -0.043809     0.480158     0.900063  Biso 1.000000     H
    H   1.0     0.065688     0.821118     0.951366  Biso 1.000000     H
    H   1.0     0.954152     0.761264     0.000000  Biso 1.000000     H
    H   1.0     0.427596     0.626011     0.407732  Biso 1.000000     H
    H   1.0     0.711475     0.640644     0.468786  Biso 1.000000     H
    H   1.0     0.385467     0.624672     0.720110  Biso 1.000000     H
    H   1.0     0.461778     0.731886     0.744843  Biso 1.000000     H
    H   1.0     0.537470     0.761759     0.864229  Biso 1.000000     H
    H   1.0     0.732846     0.689733     0.864297  Biso 1.000000     H
    H   1.0     0.845594     0.583972     0.749460  Biso 1.000000     H
    H   1.0     0.059627     0.145021     0.779799  Biso 1.000000     H
    H   1.0     0.275489     0.107769     0.945033  Biso 1.000000     H
    H   1.0     0.198152     0.420563     0.744306  Biso 1.000000     H
    H   1.0     0.466549     0.224480     0.798102  Biso 1.000000     H
    H   1.0     0.610673     0.311728     0.807354  Biso 1.000000     H
    H   1.0     0.550458     0.459426     0.879981  Biso 1.000000     H
    H   1.0     0.346278     0.517283     0.943973  Biso 1.000000     H
    H   1.0     0.363440     0.869164     0.808909  Biso 1.000000     H
    H   1.0     0.494442     0.013096     0.729601  Biso 1.000000     H
    H   1.0     0.498422     0.155507     0.553627  Biso 1.000000     H
    H   1.0     0.376426     0.150133     0.459464  Biso 1.000000     H
    H   1.0     0.268522     0.853554     0.516535  Biso 1.000000     H
    H   1.0     0.073510     0.035269     0.326792  Biso 1.000000     H
    H   1.0     0.170124     0.179019     0.494582  Biso 1.000000     H
    H   1.0     0.898646     0.189516     0.680620  Biso 1.000000     H
    H   1.0     0.842812     0.162474     0.611188  Biso 1.000000     H
    H   1.0     0.975527     0.500590     0.228010  Biso 1.000000     H
    H   1.0     0.000000     0.519869     0.099955  Biso 1.000000     H
    H   1.0     0.934405     0.178890     0.048664  Biso 1.000000     H
    H   1.0     0.045932     0.238756    -0.005597  Biso 1.000000     H
    H   1.0     0.572486     0.374022     0.592277  Biso 1.000000     H
    H   1.0     0.288602     0.359411     0.531220  Biso 1.000000     H
    H   1.0     0.614612     0.375358     0.279903  Biso 1.000000     H
    H   1.0     0.538301     0.268152     0.255169  Biso 1.000000     H
    H   1.0     0.462611     0.238277     0.135782  Biso 1.000000     H
    H   1.0     0.267231     0.310294     0.135721  Biso 1.000000     H
    H   1.0     0.154480     0.416054     0.250556  Biso 1.000000     H
    H   1.0     0.940449     0.855000     0.220227  Biso 1.000000     H
    H   1.0     0.724606     0.892256     0.054972  Biso 1.000000     H
    H   1.0     0.801923     0.579461     0.255714  Biso 1.000000     H
    H   1.0     0.533538     0.775555     0.201896  Biso 1.000000     H
    H   1.0     0.389414     0.688313     0.192636  Biso 1.000000     H
    H   1.0     0.449628     0.540608     0.120018  Biso 1.000000     H
    H   1.0     0.653807     0.482740     0.056041  Biso 1.000000     H
    H   1.0     0.636646     0.130863     0.191113  Biso 1.000000     H
    H   1.0     0.505651     0.986925     0.270416  Biso 1.000000     H
    H   1.0     0.501670     0.844514     0.446390  Biso 1.000000     H
    H   1.0     0.623660     0.849892     0.540557  Biso 1.000000     H
    H   1.0     0.731560     0.146470     0.483493  Biso 1.000000     H
    H   1.0     0.926563     0.964750     0.673244  Biso 1.000000     H
    H   1.0     0.829960     0.821006     0.505441  Biso 1.000000     H
    C   1.0     0.266062     0.627425     0.600211  Biso 1.000000     C
    C   1.0     0.391768     0.626994     0.567770  Biso 1.000000     C
    C   1.0     0.463220     0.628312     0.464426  Biso 1.000000     C
    C   1.0     0.620332     0.633421     0.500523  Biso 1.000000     C
    C   1.0     0.557694     0.629907     0.606780  Biso 1.000000     C
    C   1.0     0.440340     0.626595     0.639519  Biso 1.000000     C
    C   1.0     0.609123     0.639532     0.678612  Biso 1.000000     C
    C   1.0     0.546032     0.698484     0.745942  Biso 1.000000     C
    C   1.0     0.588835     0.715995     0.812860  Biso 1.000000     C
    C   1.0     0.697332     0.675296     0.813855  Biso 1.000000     C
    C   1.0     0.761293     0.616434     0.748243  Biso 1.000000     C
    C   1.0     0.718878     0.597825     0.680892  Biso 1.000000     C
    C   1.0     0.791614     0.526546     0.620923  Biso 1.000000     C
    C   1.0     0.055345     0.362944     0.680989  Biso 1.000000     C
    C   1.0     0.118129     0.292177     0.754993  Biso 1.000000     C
    C   1.0     0.111447     0.182083     0.799396  Biso 1.000000     C
    C   1.0     0.231897     0.161962     0.890153  Biso 1.000000     C
    C   1.0     0.245798     0.270875     0.849737  Biso 1.000000     C
    C   1.0     0.187495     0.336048     0.780227  Biso 1.000000     C
    C   1.0     0.325049     0.317506     0.870017  Biso 1.000000     C
    C   1.0     0.440297     0.285897     0.834236  Biso 1.000000     C
    C   1.0     0.521304     0.335397     0.838653  Biso 1.000000     C
    C   1.0     0.487745     0.419043     0.877976  Biso 1.000000     C
    C   1.0     0.373687     0.452093     0.913101  Biso 1.000000     C
    C   1.0     0.291265     0.401175     0.911576  Biso 1.000000     C
    C   1.0     0.170128     0.432009     0.965441  Biso 1.000000     C
    C   1.0     0.218218     0.840130     0.738079  Biso 1.000000     C
    C   1.0     0.296595     0.927890     0.680100  Biso 1.000000     C
    C   1.0     0.367846     0.931308     0.731736  Biso 1.000000     C
    C   1.0     0.440042     0.012176     0.687795  Biso 1.000000     C
    C   1.0     0.442158     0.091726     0.589826  Biso 1.000000     C
    C   1.0     0.372110     0.089487     0.537438  Biso 1.000000     C
    C   1.0     0.298079     0.008813     0.580794  Biso 1.000000     C
    C   1.0     0.229310     0.014847     0.515890  Biso 1.000000     C
    C   1.0     0.225266     0.930140     0.486681  Biso 1.000000     C
    C   1.0     0.117962     0.030859     0.379503  Biso 1.000000     C
    C   1.0     0.116411     0.119720     0.403798  Biso 1.000000     C
    C   1.0     0.171823     0.110646     0.473719  Biso 1.000000     C
    C   1.0     0.054534     0.221409     0.357067  Biso 1.000000     C
    C   1.0     0.734016     0.372604     0.399802  Biso 1.000000     C
    C   1.0     0.608311     0.373030     0.432244  Biso 1.000000     C
    C   1.0     0.536860     0.371727     0.535583  Biso 1.000000     C
    C   1.0     0.379745     0.366629     0.499483  Biso 1.000000     C
    C   1.0     0.442384     0.370128     0.393231  Biso 1.000000     C
    C   1.0     0.559739     0.373437     0.360493  Biso 1.000000     C
    C   1.0     0.390955     0.360508     0.321397  Biso 1.000000     C
    C   1.0     0.454046     0.301553     0.254069  Biso 1.000000     C
    C   1.0     0.411244     0.284039     0.187153  Biso 1.000000     C
    C   1.0     0.302745     0.324735     0.186159  Biso 1.000000     C
    C   1.0     0.238782     0.383595     0.251773  Biso 1.000000     C
    C   1.0     0.281195     0.402206     0.319124  Biso 1.000000     C
    C   1.0     0.208453     0.473488     0.379089  Biso 1.000000     C
    C   1.0     0.944713     0.637077     0.319048  Biso 1.000000     C
    C   1.0     0.881946     0.707845     0.245029  Biso 1.000000     C
    C   1.0     0.888632     0.817939     0.200626  Biso 1.000000     C
    C   1.0     0.768189     0.838063     0.109861  Biso 1.000000     C
    C   1.0     0.754290     0.729149     0.150272  Biso 1.000000     C
    C   1.0     0.812584     0.663976     0.219790  Biso 1.000000     C
    C   1.0     0.675035     0.682521     0.129994  Biso 1.000000     C
    C   1.0     0.559789     0.714136     0.165765  Biso 1.000000     C
    C   1.0     0.478783     0.664637     0.161344  Biso 1.000000     C
    C   1.0     0.512342     0.580989     0.122025  Biso 1.000000     C
    C   1.0     0.626400     0.547934     0.086908  Biso 1.000000     C
    C   1.0     0.708821     0.598850     0.088438  Biso 1.000000     C
    C   1.0     0.829957     0.568010     0.034579  Biso 1.000000     C
    C   1.0     0.781859     0.159902     0.261953  Biso 1.000000     C
    C   1.0     0.703489     0.072136     0.319927  Biso 1.000000     C
    C   1.0     0.632246     0.068716     0.268284  Biso 1.000000     C
    C   1.0     0.560051     0.987848     0.312221  Biso 1.000000     C
    C   1.0     0.557930     0.908299     0.410192  Biso 1.000000     C
    C   1.0     0.627977     0.910535     0.462582  Biso 1.000000     C
    C   1.0     0.702005     0.991210     0.419231  Biso 1.000000     C
    C   1.0     0.770776     0.985179     0.484133  Biso 1.000000     C
    C   1.0     0.774813     0.069883     0.513349  Biso 1.000000     C
    C   1.0     0.882115     0.969162     0.620528  Biso 1.000000     C
    C   1.0     0.883669     0.880303     0.596230  Biso 1.000000     C
    C   1.0     0.828260     0.889379     0.526305  Biso 1.000000     C
    C   1.0     0.945540     0.778611     0.642963  Biso 1.000000     C
    N   1.0     0.575782     0.631864     0.430737  Biso 1.000000     N
    N   1.0     0.166073     0.117402     0.866564  Biso 1.000000     N
    N   1.0     0.170545     0.937306     0.421006  Biso 1.000000     N
    N   1.0     0.424299     0.368166     0.569276  Biso 1.000000     N
    N   1.0     0.834022     0.882619     0.133444  Biso 1.000000     N
    N   1.0     0.829533     0.062716     0.579024  Biso 1.000000     N
    O   1.0     0.227280     0.627938     0.531381  Biso 1.000000     O
    O   1.0     0.205572     0.628348     0.694562  Biso 1.000000     O
    O   1.0     0.894051     0.549571     0.557954  Biso 1.000000     O
    O   1.0     0.755467     0.442895     0.632663  Biso 1.000000     O
    O   1.0     0.062022     0.462750     0.653188  Biso 1.000000     O
    O   1.0     0.000830     0.321437     0.650844  Biso 1.000000     O
    O   1.0     0.141577     0.529960     0.954289  Biso 1.000000     O
    O   1.0     0.103556     0.358297     0.025688  Biso 1.000000     O
    O   1.0     0.123544     0.853320     0.723542  Biso 1.000000     O
    O   1.0     0.245514     0.753238     0.803674  Biso 1.000000     O
    O   1.0     0.017828     0.283903     0.410591  Biso 1.000000     O
    O   1.0     0.044092     0.238989     0.267734  Biso 1.000000     O
    O   1.0     0.146561     0.779316     0.366384  Biso 1.000000     O
    O   1.0     0.002894     0.527922     0.830825  Biso 1.000000     O
    O   1.0     0.035656     0.754751     0.968468  Biso 1.000000     O
    O   1.0     0.772798     0.372068     0.468641  Biso 1.000000     O
    O   1.0     0.794507     0.371683     0.305450  Biso 1.000000     O
    O   1.0     0.106023     0.450446     0.442072  Biso 1.000000     O
    O   1.0     0.244591     0.557145     0.367345  Biso 1.000000     O
    O   1.0     0.938045     0.537271     0.346839  Biso 1.000000     O
    O   1.0     0.999245     0.678582     0.349179  Biso 1.000000     O
    O   1.0     0.858502     0.470058     0.045731  Biso 1.000000     O
    O   1.0     0.896532     0.641720     0.974331  Biso 1.000000     O
    O   1.0     0.876543     0.146706     0.276473  Biso 1.000000     O
    O   1.0     0.754570     0.246785     0.196344  Biso 1.000000     O
    O   1.0     0.982243     0.716115     0.589442  Biso 1.000000     O
    O   1.0     0.955988     0.761036     0.732293  Biso 1.000000     O
    O   1.0     0.853498     0.220707     0.633655  Biso 1.000000     O
    O   1.0     0.997197     0.472100     0.169194  Biso 1.000000     O
    O   1.0     0.964426     0.245265     0.031552  Biso 1.000000     O
    Y   1.0     0.076038     0.612707     0.492793  Biso 1.000000     Y
    Y   1.0     0.074718     0.673921     0.831522  Biso 1.000000     Y
    Y   1.0     0.924030     0.387314     0.507235  Biso 1.000000     Y
    Y   1.0     0.925366     0.326103     0.168497  Biso 1.000000     Y
