#======================================================================

# CRYSTAL DATA

#----------------------------------------------------------------------

data_VESTA_phase_1


_pd_phase_name                         MOF
_cell_length_a                         11.27200
_cell_length_b                         24.20900
_cell_length_c                         23.21100
_cell_angle_alpha                      98.11600
_cell_angle_beta                       90.00900
_cell_angle_gamma                      90.01100
_symmetry_space_group_name_H-M         "P 1"
_symmetry_Int_Tables_number            1

loop_
_symmetry_equiv_pos_as_xyz
   "x, y, z"

loop_
   _atom_site_label
   _atom_site_occupancy
   _atom_site_fract_x
   _atom_site_fract_y
   _atom_site_fract_z
   _atom_site_adp_type
   _atom_site_B_iso_or_equiv
   _atom_site_type_symbol
    H   1.0     0.116183     0.052093     0.115340  Biso 1.000000     H
    H   1.0     0.116185     0.552081     0.115326  Biso 1.000000     H
    H   1.0     0.616205     0.052092     0.115339  Biso 1.000000     H
    H   1.0     0.616206     0.552081     0.115325  Biso 1.000000     H
    H   1.0     0.126753     0.486513     0.207381  Biso 1.000000     H
    H   1.0     0.126781     0.986514     0.207384  Biso 1.000000     H
    H   1.0     0.626776     0.486511     0.207380  Biso 1.000000     H
    H   1.0     0.626804     0.986512     0.207384  Biso 1.000000     H
    H   1.0     0.285642     0.409953     0.165988  Biso 1.000000     H
    H   1.0     0.285673     0.909950     0.165984  Biso 1.000000     H
    H   1.0     0.785663     0.409953     0.165988  Biso 1.000000     H
    H   1.0     0.785693     0.909951     0.165983  Biso 1.000000     H
    H   1.0     0.062820     0.142828     0.083116  Biso 1.000000     H
    H   1.0     0.062827     0.642825     0.083117  Biso 1.000000     H
    H   1.0     0.562842     0.142828     0.083115  Biso 1.000000     H
    H   1.0     0.562848     0.642824     0.083116  Biso 1.000000     H
    H   1.0     0.246384     0.411734     0.272536  Biso 1.000000     H
    H   1.0     0.246406     0.911732     0.272531  Biso 1.000000     H
    H   1.0     0.746406     0.411732     0.272536  Biso 1.000000     H
    H   1.0     0.746428     0.911729     0.272530  Biso 1.000000     H
    H   1.0     0.088282     0.485273     0.313019  Biso 1.000000     H
    H   1.0     0.088299     0.985272     0.313022  Biso 1.000000     H
    H   1.0     0.588303     0.485273     0.313019  Biso 1.000000     H
    H   1.0     0.588320     0.985273     0.313022  Biso 1.000000     H
    H   1.0     0.274859     0.485007     0.057989  Biso 1.000000     H
    H   1.0     0.274884     0.985005     0.057996  Biso 1.000000     H
    H   1.0     0.774881     0.485007     0.057988  Biso 1.000000     H
    H   1.0     0.774905     0.985005     0.057996  Biso 1.000000     H
    H   1.0     0.222777     0.076450     0.025955  Biso 1.000000     H
    H   1.0     0.222768     0.576460     0.025961  Biso 1.000000     H
    H   1.0     0.722798     0.076450     0.025954  Biso 1.000000     H
    H   1.0     0.722790     0.576460     0.025960  Biso 1.000000     H
    H   1.0     0.366285     0.197871     0.384649  Biso 1.000000     H
    H   1.0     0.366303     0.697866     0.384647  Biso 1.000000     H
    H   1.0     0.866307     0.197871     0.384649  Biso 1.000000     H
    H   1.0     0.866325     0.697866     0.384647  Biso 1.000000     H
    H   1.0     0.376870     0.263458     0.292613  Biso 1.000000     H
    H   1.0     0.376889     0.763454     0.292609  Biso 1.000000     H
    H   1.0     0.876894     0.263459     0.292613  Biso 1.000000     H
    H   1.0     0.876911     0.763454     0.292609  Biso 1.000000     H
    H   1.0     0.035845     0.340030     0.334036  Biso 1.000000     H
    H   1.0     0.035868     0.840028     0.334038  Biso 1.000000     H
    H   1.0     0.535867     0.340030     0.334036  Biso 1.000000     H
    H   1.0     0.535890     0.840027     0.334039  Biso 1.000000     H
    H   1.0     0.312813     0.107133     0.416851  Biso 1.000000     H
    H   1.0     0.312824     0.607130     0.416851  Biso 1.000000     H
    H   1.0     0.812834     0.107133     0.416851  Biso 1.000000     H
    H   1.0     0.812845     0.607130     0.416851  Biso 1.000000     H
    H   1.0     0.496508     0.338256     0.227494  Biso 1.000000     H
    H   1.0     0.496526     0.838258     0.227499  Biso 1.000000     H
    H   1.0     0.996529     0.338258     0.227494  Biso 1.000000     H
    H   1.0     0.996546     0.838258     0.227499  Biso 1.000000     H
    H   1.0     0.338296     0.264703     0.186981  Biso 1.000000     H
    H   1.0     0.338310     0.764702     0.186978  Biso 1.000000     H
    H   1.0     0.838318     0.264703     0.186980  Biso 1.000000     H
    H   1.0     0.838331     0.764703     0.186978  Biso 1.000000     H
    H   1.0     0.025125     0.265010     0.442060  Biso 1.000000     H
    H   1.0     0.025151     0.765014     0.442061  Biso 1.000000     H
    H   1.0     0.525147     0.265011     0.442059  Biso 1.000000     H
    H   1.0     0.525173     0.765014     0.442061  Biso 1.000000     H
    H   1.0     0.472932     0.173559     0.474070  Biso 1.000000     H
    H   1.0     0.472951     0.673564     0.474073  Biso 1.000000     H
    H   1.0     0.972953     0.173558     0.474070  Biso 1.000000     H
    H   1.0     0.972972     0.673563     0.474073  Biso 1.000000     H
    H   1.0     0.383847     0.447909     0.884693  Biso 1.000000     H
    H   1.0     0.383848     0.947897     0.884677  Biso 1.000000     H
    H   1.0     0.883869     0.447908     0.884691  Biso 1.000000     H
    H   1.0     0.883867     0.947897     0.884678  Biso 1.000000     H
    H   1.0     0.373264     0.013466     0.792626  Biso 1.000000     H
    H   1.0     0.373292     0.513468     0.792631  Biso 1.000000     H
    H   1.0     0.873285     0.013466     0.792626  Biso 1.000000     H
    H   1.0     0.873313     0.513467     0.792630  Biso 1.000000     H
    H   1.0     0.214369     0.090031     0.834029  Biso 1.000000     H
    H   1.0     0.214402     0.590029     0.834024  Biso 1.000000     H
    H   1.0     0.714392     0.090029     0.834029  Biso 1.000000     H
    H   1.0     0.714423     0.590029     0.834024  Biso 1.000000     H
    H   1.0     0.437209     0.357165     0.916898  Biso 1.000000     H
    H   1.0     0.437214     0.857161     0.916900  Biso 1.000000     H
    H   1.0     0.937231     0.357164     0.916898  Biso 1.000000     H
    H   1.0     0.937236     0.857160     0.916898  Biso 1.000000     H
    H   1.0     0.253638     0.088251     0.727482  Biso 1.000000     H
    H   1.0     0.253661     0.588247     0.727476  Biso 1.000000     H
    H   1.0     0.753660     0.088251     0.727483  Biso 1.000000     H
    H   1.0     0.753683     0.588247     0.727475  Biso 1.000000     H
    H   1.0     0.411748     0.014708     0.686989  Biso 1.000000     H
    H   1.0     0.411767     0.514705     0.686992  Biso 1.000000     H
    H   1.0     0.911770     0.014706     0.686989  Biso 1.000000     H
    H   1.0     0.911788     0.514705     0.686992  Biso 1.000000     H
    H   1.0     0.225142     0.014988     0.942026  Biso 1.000000     H
    H   1.0     0.225170     0.514985     0.942032  Biso 1.000000     H
    H   1.0     0.725165     0.014987     0.942024  Biso 1.000000     H
    H   1.0     0.725191     0.514984     0.942032  Biso 1.000000     H
    H   1.0     0.277263     0.423531     0.974058  Biso 1.000000     H
    H   1.0     0.277253     0.923541     0.974063  Biso 1.000000     H
    H   1.0     0.777285     0.423530     0.974057  Biso 1.000000     H
    H   1.0     0.777275     0.923541     0.974064  Biso 1.000000     H
    H   1.0     0.133754     0.302117     0.615368  Biso 1.000000     H
    H   1.0     0.133774     0.802114     0.615368  Biso 1.000000     H
    H   1.0     0.633776     0.302117     0.615368  Biso 1.000000     H
    H   1.0     0.633796     0.802113     0.615368  Biso 1.000000     H
    H   1.0     0.123156     0.236523     0.707397  Biso 1.000000     H
    H   1.0     0.123173     0.736519     0.707394  Biso 1.000000     H
    H   1.0     0.623178     0.236523     0.707397  Biso 1.000000     H
    H   1.0     0.623196     0.736519     0.707393  Biso 1.000000     H
    H   1.0     0.464181     0.159952     0.665975  Biso 1.000000     H
    H   1.0     0.464204     0.659949     0.665978  Biso 1.000000     H
    H   1.0     0.964203     0.159952     0.665976  Biso 1.000000     H
    H   1.0     0.964227     0.659950     0.665978  Biso 1.000000     H
    H   1.0     0.187226     0.392855     0.583165  Biso 1.000000     H
    H   1.0     0.187237     0.892852     0.583163  Biso 1.000000     H
    H   1.0     0.687247     0.392855     0.583166  Biso 1.000000     H
    H   1.0     0.687258     0.892852     0.583164  Biso 1.000000     H
    H   1.0     0.003517     0.161723     0.772517  Biso 1.000000     H
    H   1.0     0.003534     0.661723     0.772521  Biso 1.000000     H
    H   1.0     0.503537     0.161723     0.772517  Biso 1.000000     H
    H   1.0     0.503555     0.661725     0.772521  Biso 1.000000     H
    H   1.0     0.161728     0.235277     0.813030  Biso 1.000000     H
    H   1.0     0.161742     0.735277     0.813028  Biso 1.000000     H
    H   1.0     0.661749     0.235277     0.813030  Biso 1.000000     H
    H   1.0     0.661763     0.735276     0.813027  Biso 1.000000     H
    H   1.0     0.474910     0.234976     0.557953  Biso 1.000000     H
    H   1.0     0.474938     0.734980     0.557957  Biso 1.000000     H
    H   1.0     0.974932     0.234976     0.557953  Biso 1.000000     H
    H   1.0     0.974960     0.734980     0.557956  Biso 1.000000     H
    H   1.0     0.027104     0.326428     0.525942  Biso 1.000000     H
    H   1.0     0.027122     0.826432     0.525944  Biso 1.000000     H
    H   1.0     0.527125     0.326428     0.525943  Biso 1.000000     H
    H   1.0     0.527143     0.826432     0.525944  Biso 1.000000     H
    C   1.0     0.392901     0.447750     0.363503  Biso 1.000000     C
    C   1.0     0.392912     0.947750     0.363502  Biso 1.000000     C
    C   1.0     0.892923     0.447749     0.363503  Biso 1.000000     C
    C   1.0     0.892933     0.947749     0.363502  Biso 1.000000     C
    C   1.0     0.353733     0.169229     0.032130  Biso 1.000000     C
    C   1.0     0.353732     0.669234     0.032139  Biso 1.000000     C
    C   1.0     0.853754     0.169228     0.032129  Biso 1.000000     C
    C   1.0     0.853753     0.669234     0.032139  Biso 1.000000     C
    C   1.0     0.029766     0.057593     0.096078  Biso 1.000000     C
    C   1.0     0.029755     0.557590     0.096080  Biso 1.000000     C
    C   1.0     0.529787     0.057592     0.096078  Biso 1.000000     C
    C   1.0     0.529776     0.557590     0.096080  Biso 1.000000     C
    C   1.0     0.042952     0.470851     0.221807  Biso 1.000000     C
    C   1.0     0.042979     0.970851     0.221809  Biso 1.000000     C
    C   1.0     0.542974     0.470850     0.221807  Biso 1.000000     C
    C   1.0     0.543000     0.970851     0.221809  Biso 1.000000     C
    C   1.0     0.350213     0.427515     0.198394  Biso 1.000000     C
    C   1.0     0.350239     0.927513     0.198391  Biso 1.000000     C
    C   1.0     0.850234     0.427514     0.198393  Biso 1.000000     C
    C   1.0     0.850261     0.927513     0.198391  Biso 1.000000     C
    C   1.0     0.457609     0.448927     0.181005  Biso 1.000000     C
    C   1.0     0.457638     0.948925     0.181007  Biso 1.000000     C
    C   1.0     0.957630     0.448927     0.181005  Biso 1.000000     C
    C   1.0     0.957659     0.948926     0.181007  Biso 1.000000     C
    C   1.0    -0.000309     0.108377     0.078073  Biso 1.000000     C
    C   1.0    -0.000316     0.608379     0.078086  Biso 1.000000     C
    C   1.0     0.499712     0.108377     0.078074  Biso 1.000000     C
    C   1.0     0.499705     0.608379     0.078085  Biso 1.000000     C
    C   1.0     0.328910     0.428361     0.257755  Biso 1.000000     C
    C   1.0     0.328932     0.928361     0.257752  Biso 1.000000     C
    C   1.0     0.828933     0.428359     0.257755  Biso 1.000000     C
    C   1.0     0.828955     0.928357     0.257751  Biso 1.000000     C
    C   1.0     0.413990     0.449316     0.299231  Biso 1.000000     C
    C   1.0     0.414008     0.949316     0.299230  Biso 1.000000     C
    C   1.0     0.914011     0.449316     0.299231  Biso 1.000000     C
    C   1.0     0.914028     0.949314     0.299230  Biso 1.000000     C
    C   1.0     0.388866     0.115029     0.052449  Biso 1.000000     C
    C   1.0     0.388868     0.615032     0.052452  Biso 1.000000     C
    C   1.0     0.888887     0.115029     0.052449  Biso 1.000000     C
    C   1.0     0.888889     0.615032     0.052452  Biso 1.000000     C
    C   1.0     0.021194     0.470392     0.280734  Biso 1.000000     C
    C   1.0     0.021213     0.970392     0.280735  Biso 1.000000     C
    C   1.0     0.521215     0.470394     0.280734  Biso 1.000000     C
    C   1.0     0.521234     0.970394     0.280735  Biso 1.000000     C
    C   1.0     0.449089     0.013234     0.087674  Biso 1.000000     C
    C   1.0     0.449076     0.513232     0.087668  Biso 1.000000     C
    C   1.0     0.949110     0.013234     0.087674  Biso 1.000000     C
    C   1.0     0.949098     0.513233     0.087668  Biso 1.000000     C
    C   1.0     0.337510     0.019500     0.063166  Biso 1.000000     C
    C   1.0     0.337489     0.519506     0.063172  Biso 1.000000     C
    C   1.0     0.837532     0.019500     0.063166  Biso 1.000000     C
    C   1.0     0.837510     0.519506     0.063172  Biso 1.000000     C
    C   1.0     0.308376     0.070524     0.045780  Biso 1.000000     C
    C   1.0     0.308359     0.570534     0.045794  Biso 1.000000     C
    C   1.0     0.808398     0.070524     0.045779  Biso 1.000000     C
    C   1.0     0.808381     0.570534     0.045793  Biso 1.000000     C
    C   1.0     0.142904     0.302243     0.136508  Biso 1.000000     C
    C   1.0     0.142913     0.802244     0.136508  Biso 1.000000     C
    C   1.0     0.642924     0.302243     0.136508  Biso 1.000000     C
    C   1.0     0.642934     0.802244     0.136508  Biso 1.000000     C
    C   1.0     0.103723     0.080759     0.467866  Biso 1.000000     C
    C   1.0     0.103733     0.580760     0.467867  Biso 1.000000     C
    C   1.0     0.603744     0.080759     0.467866  Biso 1.000000     C
    C   1.0     0.603754     0.580760     0.467867  Biso 1.000000     C
    C   1.0     0.279871     0.192378     0.403909  Biso 1.000000     C
    C   1.0     0.279890     0.692376     0.403910  Biso 1.000000     C
    C   1.0     0.779892     0.192378     0.403910  Biso 1.000000     C
    C   1.0     0.779912     0.692376     0.403910  Biso 1.000000     C
    C   1.0     0.293070     0.279126     0.278196  Biso 1.000000     C
    C   1.0     0.293089     0.779124     0.278193  Biso 1.000000     C
    C   1.0     0.793092     0.279126     0.278196  Biso 1.000000     C
    C   1.0     0.793111     0.779124     0.278193  Biso 1.000000     C
    C   1.0     0.100375     0.322469     0.301627  Biso 1.000000     C
    C   1.0     0.100397     0.822467     0.301629  Biso 1.000000     C
    C   1.0     0.600397     0.322468     0.301627  Biso 1.000000     C
    C   1.0     0.600419     0.822467     0.301629  Biso 1.000000     C
    C   1.0     0.207769     0.301054     0.319007  Biso 1.000000     C
    C   1.0     0.207793     0.801052     0.319007  Biso 1.000000     C
    C   1.0     0.707791     0.301054     0.319007  Biso 1.000000     C
    C   1.0     0.707815     0.801052     0.319007  Biso 1.000000     C
    C   1.0     0.249734     0.141591     0.421899  Biso 1.000000     C
    C   1.0     0.249749     0.641590     0.421901  Biso 1.000000     C
    C   1.0     0.749756     0.141592     0.421900  Biso 1.000000     C
    C   1.0     0.749770     0.641590     0.421901  Biso 1.000000     C
    C   1.0     0.079015     0.321627     0.242266  Biso 1.000000     C
    C   1.0     0.079034     0.821629     0.242269  Biso 1.000000     C
    C   1.0     0.579035     0.321626     0.242266  Biso 1.000000     C
    C   1.0     0.579056     0.821629     0.242269  Biso 1.000000     C
    C   1.0     0.164031     0.300668     0.200781  Biso 1.000000     C
    C   1.0     0.164045     0.800668     0.200781  Biso 1.000000     C
    C   1.0     0.664053     0.300667     0.200781  Biso 1.000000     C
    C   1.0     0.664066     0.800668     0.200781  Biso 1.000000     C
    C   1.0     0.138918     0.134957     0.447550  Biso 1.000000     C
    C   1.0     0.138931     0.634958     0.447551  Biso 1.000000     C
    C   1.0     0.638939     0.134957     0.447550  Biso 1.000000     C
    C   1.0     0.638952     0.634958     0.447551  Biso 1.000000     C
    C   1.0     0.271254     0.279587     0.219271  Biso 1.000000     C
    C   1.0     0.271270     0.779588     0.219269  Biso 1.000000     C
    C   1.0     0.771275     0.279586     0.219271  Biso 1.000000     C
    C   1.0     0.771292     0.779588     0.219269  Biso 1.000000     C
    C   1.0     0.199258     0.236754     0.412346  Biso 1.000000     C
    C   1.0     0.199282     0.736754     0.412347  Biso 1.000000     C
    C   1.0     0.699279     0.236754     0.412346  Biso 1.000000     C
    C   1.0     0.699304     0.736754     0.412347  Biso 1.000000     C
    C   1.0     0.087693     0.230500     0.436862  Biso 1.000000     C
    C   1.0     0.087717     0.730503     0.436865  Biso 1.000000     C
    C   1.0     0.587714     0.230501     0.436862  Biso 1.000000     C
    C   1.0     0.587739     0.730503     0.436865  Biso 1.000000     C
    C   1.0     0.058495     0.179472     0.454232  Biso 1.000000     C
    C   1.0     0.058514     0.679476     0.454235  Biso 1.000000     C
    C   1.0     0.558516     0.179473     0.454232  Biso 1.000000     C
    C   1.0     0.558536     0.679476     0.454235  Biso 1.000000     C
    C   1.0     0.107129     0.052238     0.636510  Biso 1.000000     C
    C   1.0     0.107140     0.552237     0.636508  Biso 1.000000     C
    C   1.0     0.607149     0.052239     0.636510  Biso 1.000000     C
    C   1.0     0.607161     0.552237     0.636508  Biso 1.000000     C
    C   1.0     0.146306     0.330756     0.967873  Biso 1.000000     C
    C   1.0     0.146305     0.830761     0.967882  Biso 1.000000     C
    C   1.0     0.646327     0.330756     0.967872  Biso 1.000000     C
    C   1.0     0.646325     0.830762     0.967883  Biso 1.000000     C
    C   1.0     0.470279     0.442400     0.903936  Biso 1.000000     C
    C   1.0     0.470266     0.942397     0.903938  Biso 1.000000     C
    C   1.0     0.970300     0.442400     0.903936  Biso 1.000000     C
    C   1.0     0.970287     0.942397     0.903937  Biso 1.000000     C
    C   1.0     0.457066     0.029130     0.778202  Biso 1.000000     C
    C   1.0     0.457094     0.529130     0.778205  Biso 1.000000     C
    C   1.0     0.957087     0.029129     0.778202  Biso 1.000000     C
    C   1.0     0.957115     0.529129     0.778205  Biso 1.000000     C
    C   1.0     0.149803     0.072469     0.801621  Biso 1.000000     C
    C   1.0     0.149831     0.572467     0.801618  Biso 1.000000     C
    C   1.0     0.649825     0.072468     0.801621  Biso 1.000000     C
    C   1.0     0.649853     0.572467     0.801618  Biso 1.000000     C
    C   1.0     0.042404     0.051056     0.819006  Biso 1.000000     C
    C   1.0     0.042435     0.551055     0.819007  Biso 1.000000     C
    C   1.0     0.542425     0.051056     0.819005  Biso 1.000000     C
    C   1.0     0.542457     0.551055     0.819007  Biso 1.000000     C
    C   1.0     0.500351     0.391610     0.921928  Biso 1.000000     C
    C   1.0     0.500342     0.891612     0.921941  Biso 1.000000     C
    C   1.0     0.000000     0.391610     0.921929  Biso 1.000000     C
    C   1.0     0.000000     0.891612     0.921939  Biso 1.000000     C
    C   1.0     0.171111     0.071623     0.742261  Biso 1.000000     C
    C   1.0     0.171135     0.571619     0.742256  Biso 1.000000     C
    C   1.0     0.671132     0.071623     0.742261  Biso 1.000000     C
    C   1.0     0.671156     0.571619     0.742256  Biso 1.000000     C
    C   1.0     0.086037     0.050667     0.700782  Biso 1.000000     C
    C   1.0     0.086055     0.550665     0.700780  Biso 1.000000     C
    C   1.0     0.586058     0.050668     0.700782  Biso 1.000000     C
    C   1.0     0.586076     0.550665     0.700780  Biso 1.000000     C
    C   1.0     0.111166     0.384959     0.947563  Biso 1.000000     C
    C   1.0     0.111167     0.884961     0.947566  Biso 1.000000     C
    C   1.0     0.611187     0.384959     0.947563  Biso 1.000000     C
    C   1.0     0.611188     0.884962     0.947567  Biso 1.000000     C
    C   1.0     0.478832     0.029589     0.719276  Biso 1.000000     C
    C   1.0     0.478854     0.529586     0.719278  Biso 1.000000     C
    C   1.0     0.978854     0.029587     0.719276  Biso 1.000000     C
    C   1.0     0.978875     0.529585     0.719278  Biso 1.000000     C
    C   1.0     0.050956     0.486758     0.912349  Biso 1.000000     C
    C   1.0     0.050940     0.986756     0.912344  Biso 1.000000     C
    C   1.0     0.550977     0.486758     0.912350  Biso 1.000000     C
    C   1.0     0.550962     0.986756     0.912344  Biso 1.000000     C
    C   1.0     0.162543     0.480485     0.936846  Biso 1.000000     C
    C   1.0     0.162520     0.980491     0.936852  Biso 1.000000     C
    C   1.0     0.662565     0.480485     0.936845  Biso 1.000000     C
    C   1.0     0.662541     0.980491     0.936852  Biso 1.000000     C
    C   1.0     0.191674     0.429457     0.954223  Biso 1.000000     C
    C   1.0     0.191656     0.929466     0.954236  Biso 1.000000     C
    C   1.0     0.691696     0.429456     0.954222  Biso 1.000000     C
    C   1.0     0.691677     0.929467     0.954238  Biso 1.000000     C
    C   1.0     0.357126     0.197745     0.863503  Biso 1.000000     C
    C   1.0     0.357135     0.697745     0.863504  Biso 1.000000     C
    C   1.0     0.857147     0.197745     0.863504  Biso 1.000000     C
    C   1.0     0.857156     0.697744     0.863503  Biso 1.000000     C
    C   1.0     0.396309     0.419229     0.532147  Biso 1.000000     C
    C   1.0     0.396318     0.919229     0.532145  Biso 1.000000     C
    C   1.0     0.896330     0.419229     0.532147  Biso 1.000000     C
    C   1.0     0.896339     0.919229     0.532145  Biso 1.000000     C
    C   1.0     0.220168     0.307610     0.596106  Biso 1.000000     C
    C   1.0     0.220186     0.807607     0.596105  Biso 1.000000     C
    C   1.0     0.720189     0.307609     0.596106  Biso 1.000000     C
    C   1.0     0.720208     0.807607     0.596106  Biso 1.000000     C
    C   1.0     0.206956     0.220855     0.721815  Biso 1.000000     C
    C   1.0     0.206974     0.720853     0.721813  Biso 1.000000     C
    C   1.0     0.706978     0.220855     0.721815  Biso 1.000000     C
    C   1.0     0.706996     0.720853     0.721813  Biso 1.000000     C
    C   1.0     0.399650     0.177513     0.698384  Biso 1.000000     C
    C   1.0     0.399673     0.677512     0.698386  Biso 1.000000     C
    C   1.0     0.899672     0.177513     0.698384  Biso 1.000000     C
    C   1.0     0.899695     0.677512     0.698386  Biso 1.000000     C
    C   1.0     0.292257     0.198929     0.681004  Biso 1.000000     C
    C   1.0     0.292280     0.698927     0.681004  Biso 1.000000     C
    C   1.0     0.792279     0.198929     0.681004  Biso 1.000000     C
    C   1.0     0.792302     0.698927     0.681004  Biso 1.000000     C
    C   1.0     0.250304     0.358396     0.578116  Biso 1.000000     C
    C   1.0     0.250317     0.858394     0.578113  Biso 1.000000     C
    C   1.0     0.750325     0.358396     0.578116  Biso 1.000000     C
    C   1.0     0.750338     0.858394     0.578115  Biso 1.000000     C
    C   1.0     0.421009     0.178353     0.757744  Biso 1.000000     C
    C   1.0     0.421029     0.678356     0.757747  Biso 1.000000     C
    C   1.0     0.921031     0.178353     0.757745  Biso 1.000000     C
    C   1.0     0.921050     0.678354     0.757746  Biso 1.000000     C
    C   1.0     0.335995     0.199315     0.799230  Biso 1.000000     C
    C   1.0     0.336009     0.699315     0.799230  Biso 1.000000     C
    C   1.0     0.836016     0.199315     0.799230  Biso 1.000000     C
    C   1.0     0.836030     0.699314     0.799230  Biso 1.000000     C
    C   1.0     0.361119     0.365030     0.552464  Biso 1.000000     C
    C   1.0     0.361133     0.865031     0.552464  Biso 1.000000     C
    C   1.0     0.861140     0.365030     0.552464  Biso 1.000000     C
    C   1.0     0.861154     0.865031     0.552464  Biso 1.000000     C
    C   1.0     0.228770     0.220392     0.780740  Biso 1.000000     C
    C   1.0     0.228787     0.720394     0.780738  Biso 1.000000     C
    C   1.0     0.728792     0.220393     0.780740  Biso 1.000000     C
    C   1.0     0.728808     0.720392     0.780738  Biso 1.000000     C
    C   1.0     0.300778     0.263233     0.587668  Biso 1.000000     C
    C   1.0     0.300803     0.763233     0.587670  Biso 1.000000     C
    C   1.0     0.800800     0.263233     0.587668  Biso 1.000000     C
    C   1.0     0.800825     0.763233     0.587670  Biso 1.000000     C
    C   1.0     0.412343     0.269487     0.563151  Biso 1.000000     C
    C   1.0     0.412366     0.769488     0.563152  Biso 1.000000     C
    C   1.0     0.912365     0.269487     0.563151  Biso 1.000000     C
    C   1.0     0.912388     0.769489     0.563152  Biso 1.000000     C
    C   1.0     0.441542     0.320515     0.545782  Biso 1.000000     C
    C   1.0     0.441559     0.820516     0.545781  Biso 1.000000     C
    C   1.0     0.941563     0.320515     0.545781  Biso 1.000000     C
    C   1.0     0.941581     0.820517     0.545782  Biso 1.000000     C
    O   1.0     0.244935     0.178099     0.024780  Biso 1.000000     O
    O   1.0     0.244937     0.678098     0.024774  Biso 1.000000     O
    O   1.0     0.744956     0.178099     0.024780  Biso 1.000000     O
    O   1.0     0.744958     0.678098     0.024774  Biso 1.000000     O
    O   1.0     0.119872     0.442093     0.099842  Biso 1.000000     O
    O   1.0     0.119901     0.942097     0.099842  Biso 1.000000     O
    O   1.0     0.619893     0.442093     0.099841  Biso 1.000000     O
    O   1.0     0.619922     0.942097     0.099842  Biso 1.000000     O
    O   1.0     0.413265     0.405658     0.072429  Biso 1.000000     O
    O   1.0     0.413309     0.905658     0.072425  Biso 1.000000     O
    O   1.0     0.913287     0.405658     0.072429  Biso 1.000000     O
    O   1.0     0.913332     0.905658     0.072425  Biso 1.000000     O
    O   1.0     0.286107     0.444644     0.379989  Biso 1.000000     O
    O   1.0     0.286116     0.944646     0.379986  Biso 1.000000     O
    O   1.0     0.786128     0.444645     0.379988  Biso 1.000000     O
    O   1.0     0.786137     0.944648     0.379986  Biso 1.000000     O
    O   1.0     0.437478     0.203833     0.024707  Biso 1.000000     O
    O   1.0     0.437477     0.703835     0.024709  Biso 1.000000     O
    O   1.0     0.937499     0.203833     0.024707  Biso 1.000000     O
    O   1.0     0.937498     0.703835     0.024709  Biso 1.000000     O
    O   1.0     0.484496     0.449158     0.395398  Biso 1.000000     O
    O   1.0     0.484504     0.949157     0.395398  Biso 1.000000     O
    O   1.0     0.984517     0.449159     0.395398  Biso 1.000000     O
    O   1.0     0.984524     0.949159     0.395399  Biso 1.000000     O
    O   1.0    -0.005075     0.071908     0.475240  Biso 1.000000     O
    O   1.0    -0.005066     0.571909     0.475238  Biso 1.000000     O
    O   1.0     0.494946     0.071908     0.475240  Biso 1.000000     O
    O   1.0     0.494955     0.571909     0.475238  Biso 1.000000     O
    O   1.0     0.370156     0.307874     0.400148  Biso 1.000000     O
    O   1.0     0.370186     0.807870     0.400146  Biso 1.000000     O
    O   1.0     0.870178     0.307873     0.400148  Biso 1.000000     O
    O   1.0     0.870208     0.807870     0.400146  Biso 1.000000     O
    O   1.0     0.163692     0.344343     0.427608  Biso 1.000000     O
    O   1.0     0.163738     0.844346     0.427611  Biso 1.000000     O
    O   1.0     0.663716     0.344344     0.427608  Biso 1.000000     O
    O   1.0     0.663762     0.844346     0.427611  Biso 1.000000     O
    O   1.0     0.036101     0.305363     0.120023  Biso 1.000000     O
    O   1.0     0.036109     0.805359     0.120024  Biso 1.000000     O
    O   1.0     0.536122     0.305363     0.120023  Biso 1.000000     O
    O   1.0     0.536130     0.805359     0.120024  Biso 1.000000     O
    O   1.0     0.187440     0.046151     0.475293  Biso 1.000000     O
    O   1.0     0.187447     0.546152     0.475293  Biso 1.000000     O
    O   1.0     0.687461     0.046152     0.475293  Biso 1.000000     O
    O   1.0     0.687468     0.546152     0.475293  Biso 1.000000     O
    O   1.0     0.234473     0.300822     0.104611  Biso 1.000000     O
    O   1.0     0.234479     0.800821     0.104609  Biso 1.000000     O
    O   1.0     0.734494     0.300823     0.104611  Biso 1.000000     O
    O   1.0     0.734501     0.800821     0.104609  Biso 1.000000     O
    O   1.0     0.255101     0.321893     0.975238  Biso 1.000000     O
    O   1.0     0.255103     0.821893     0.975233  Biso 1.000000     O
    O   1.0     0.755122     0.321893     0.975238  Biso 1.000000     O
    O   1.0     0.755124     0.821892     0.975232  Biso 1.000000     O
    O   1.0     0.380135     0.057895     0.900167  Biso 1.000000     O
    O   1.0     0.380166     0.557899     0.900168  Biso 1.000000     O
    O   1.0     0.880155     0.057895     0.900167  Biso 1.000000     O
    O   1.0     0.880187     0.557899     0.900168  Biso 1.000000     O
    O   1.0     0.086726     0.094331     0.927585  Biso 1.000000     O
    O   1.0     0.086774     0.594331     0.927581  Biso 1.000000     O
    O   1.0     0.586748     0.094331     0.927585  Biso 1.000000     O
    O   1.0     0.586797     0.594331     0.927581  Biso 1.000000     O
    O   1.0     0.213923     0.055344     0.620024  Biso 1.000000     O
    O   1.0     0.213932     0.555347     0.620021  Biso 1.000000     O
    O   1.0     0.713944     0.055344     0.620024  Biso 1.000000     O
    O   1.0     0.713953     0.555347     0.620021  Biso 1.000000     O
    O   1.0     0.062562     0.296154     0.975304  Biso 1.000000     O
    O   1.0     0.062562     0.796156     0.975305  Biso 1.000000     O
    O   1.0     0.562583     0.296154     0.975304  Biso 1.000000     O
    O   1.0     0.562582     0.796156     0.975306  Biso 1.000000     O
    O   1.0     0.015535     0.050833     0.604615  Biso 1.000000     O
    O   1.0     0.015542     0.550833     0.604616  Biso 1.000000     O
    O   1.0     0.515556     0.050832     0.604615  Biso 1.000000     O
    O   1.0     0.515563     0.550833     0.604616  Biso 1.000000     O
    O   1.0     0.505106     0.428083     0.524772  Biso 1.000000     O
    O   1.0     0.505114     0.928085     0.524771  Biso 1.000000     O
    O   1.0     0.000000     0.428083     0.524772  Biso 1.000000     O
    O   1.0     0.000000     0.928084     0.524771  Biso 1.000000     O
    O   1.0     0.129873     0.192118     0.599862  Biso 1.000000     O
    O   1.0     0.129903     0.692115     0.599859  Biso 1.000000     O
    O   1.0     0.629896     0.192118     0.599862  Biso 1.000000     O
    O   1.0     0.629926     0.692114     0.599859  Biso 1.000000     O
    O   1.0     0.336330     0.155642     0.572401  Biso 1.000000     O
    O   1.0     0.336375     0.655645     0.572403  Biso 1.000000     O
    O   1.0     0.836354     0.155642     0.572401  Biso 1.000000     O
    O   1.0     0.836398     0.655645     0.572403  Biso 1.000000     O
    O   1.0     0.463929     0.194631     0.879988  Biso 1.000000     O
    O   1.0     0.463937     0.694627     0.879988  Biso 1.000000     O
    O   1.0     0.963950     0.194631     0.879988  Biso 1.000000     O
    O   1.0     0.963958     0.694628     0.879989  Biso 1.000000     O
    O   1.0     0.312591     0.453836     0.524720  Biso 1.000000     O
    O   1.0     0.312597     0.953835     0.524720  Biso 1.000000     O
    O   1.0     0.812612     0.453836     0.524720  Biso 1.000000     O
    O   1.0     0.812618     0.953835     0.524720  Biso 1.000000     O
    O   1.0     0.265558     0.199171     0.895403  Biso 1.000000     O
    O   1.0     0.265565     0.699169     0.895401  Biso 1.000000     O
    O   1.0     0.765579     0.199170     0.895403  Biso 1.000000     O
    O   1.0     0.765587     0.699170     0.895401  Biso 1.000000     O
    S   1.0     0.491536     0.447002     0.106048  Biso 1.000000     S
    S   1.0     0.491567     0.947003     0.106050  Biso 1.000000     S
    S   1.0     0.991558     0.447002     0.106048  Biso 1.000000     S
    S   1.0     0.991588     0.947004     0.106050  Biso 1.000000     S
    S   1.0     0.241796     0.302977     0.393961  Biso 1.000000     S
    S   1.0     0.241827     0.802976     0.393961  Biso 1.000000     S
    S   1.0     0.741819     0.302977     0.393961  Biso 1.000000     S
    S   1.0     0.741850     0.802976     0.393960  Biso 1.000000     S
    S   1.0     0.008468     0.052985     0.893962  Biso 1.000000     S
    S   1.0     0.008501     0.552987     0.893964  Biso 1.000000     S
    S   1.0     0.508490     0.052985     0.893962  Biso 1.000000     S
    S   1.0     0.508523     0.552987     0.893964  Biso 1.000000     S
    S   1.0     0.258233     0.197010     0.606050  Biso 1.000000     S
    S   1.0     0.258263     0.697008     0.606050  Biso 1.000000     S
    S   1.0     0.758255     0.197009     0.606050  Biso 1.000000     S
    S   1.0     0.758285     0.697008     0.606050  Biso 1.000000     S
   Ca   1.0     0.396102     0.303062     0.045366  Biso 1.000000    Ca
   Ca   1.0     0.396109     0.803060     0.045361  Biso 1.000000    Ca
   Ca   1.0     0.896123     0.303062     0.045366  Biso 1.000000    Ca
   Ca   1.0     0.896131     0.803060     0.045361  Biso 1.000000    Ca
   Ca   1.0     0.146118     0.446915     0.454644  Biso 1.000000    Ca
   Ca   1.0     0.146129     0.946915     0.454644  Biso 1.000000    Ca
   Ca   1.0     0.646139     0.446915     0.454644  Biso 1.000000    Ca
   Ca   1.0     0.646150     0.946915     0.454644  Biso 1.000000    Ca
   Ca   1.0     0.103929     0.196929     0.954651  Biso 1.000000    Ca
   Ca   1.0     0.103936     0.696927     0.954646  Biso 1.000000    Ca
   Ca   1.0     0.603950     0.196929     0.954651  Biso 1.000000    Ca
   Ca   1.0     0.603957     0.696927     0.954646  Biso 1.000000    Ca
   Ca   1.0     0.353913     0.053072     0.545368  Biso 1.000000    Ca
   Ca   1.0     0.353925     0.553073     0.545366  Biso 1.000000    Ca
   Ca   1.0     0.853934     0.053072     0.545368  Biso 1.000000    Ca
   Ca   1.0     0.853946     0.553073     0.545366  Biso 1.000000    Ca
