#======================================================================

# CRYSTAL DATA

#----------------------------------------------------------------------

data_VESTA_phase_1


_pd_phase_name                         MOF
_cell_length_a                         15.63000
_cell_length_b                         22.95000
_cell_length_c                         22.95000
_cell_angle_alpha                      90.00000
_cell_angle_beta                       90.00400
_cell_angle_gamma                      90.07100
_symmetry_space_group_name_H-M         "P 1"
_symmetry_Int_Tables_number            1

loop_
_symmetry_equiv_pos_as_xyz
   "x, y, z"

loop_
   _atom_site_label
   _atom_site_occupancy
   _atom_site_fract_x
   _atom_site_fract_y
   _atom_site_fract_z
   _atom_site_adp_type
   _atom_site_B_iso_or_equiv
   _atom_site_type_symbol
    H   1.0     0.366137     0.000142     0.400450  Biso 1.000000     H
    H   1.0     0.366511    -0.000021     0.900459  Biso 1.000000     H
    H   1.0     0.367223     0.500240     0.400591  Biso 1.000000     H
    H   1.0     0.366816     0.500469     0.900308  Biso 1.000000     H
    H   1.0     0.866094     0.000142     0.400345  Biso 1.000000     H
    H   1.0     0.866634    -0.000002     0.900682  Biso 1.000000     H
    H   1.0     0.867376     0.500139     0.400463  Biso 1.000000     H
    H   1.0     0.866882     0.500464     0.900459  Biso 1.000000     H
    H   1.0     0.360548     0.000186     0.293644  Biso 1.000000     H
    H   1.0     0.360675    -0.000012     0.793678  Biso 1.000000     H
    H   1.0     0.361423     0.500132     0.293807  Biso 1.000000     H
    H   1.0     0.361285     0.500418     0.793502  Biso 1.000000     H
    H   1.0     0.860572     0.000182     0.293531  Biso 1.000000     H
    H   1.0     0.860752    -0.000002     0.793896  Biso 1.000000     H
    H   1.0     0.861572     0.500147     0.293689  Biso 1.000000     H
    H   1.0     0.861412     0.500378     0.793650  Biso 1.000000     H
    H   1.0     0.366463    -0.000194     0.099459  Biso 1.000000     H
    H   1.0     0.366135    -0.000008     0.599490  Biso 1.000000     H
    H   1.0     0.366806     0.500214     0.099650  Biso 1.000000     H
    H   1.0     0.367206     0.499766     0.599363  Biso 1.000000     H
    H   1.0     0.866609    -0.000179     0.099346  Biso 1.000000     H
    H   1.0     0.866095    -0.000032     0.599684  Biso 1.000000     H
    H   1.0     0.866879     0.500140     0.099556  Biso 1.000000     H
    H   1.0     0.867362     0.499858     0.599540  Biso 1.000000     H
    H   1.0     0.360659    -0.000213     0.206242  Biso 1.000000     H
    H   1.0     0.360563    -0.000023     0.706295  Biso 1.000000     H
    H   1.0     0.361293     0.500121     0.206453  Biso 1.000000     H
    H   1.0     0.361414     0.499838     0.706147  Biso 1.000000     H
    H   1.0     0.860733    -0.000220     0.206135  Biso 1.000000     H
    H   1.0     0.860595    -0.000030     0.706498  Biso 1.000000     H
    H   1.0     0.861414     0.500150     0.206364  Biso 1.000000     H
    H   1.0     0.861570     0.499835     0.706316  Biso 1.000000     H
    H   1.0     0.366539     0.099484     0.000270  Biso 1.000000     H
    H   1.0     0.366211     0.099657     0.499817  Biso 1.000000     H
    H   1.0     0.366688     0.599325    -0.000242  Biso 1.000000     H
    H   1.0     0.367137     0.599202     0.499687  Biso 1.000000     H
    H   1.0     0.866693     0.099427     0.000190  Biso 1.000000     H
    H   1.0     0.866165     0.099603     0.499876  Biso 1.000000     H
    H   1.0     0.866769     0.599429    -0.000333  Biso 1.000000     H
    H   1.0     0.867271     0.599266     0.499809  Biso 1.000000     H
    H   1.0     0.360931     0.206264     0.000187  Biso 1.000000     H
    H   1.0     0.360883     0.206467     0.499797  Biso 1.000000     H
    H   1.0     0.360961     0.706097    -0.000296  Biso 1.000000     H
    H   1.0     0.361176     0.705957     0.499785  Biso 1.000000     H
    H   1.0     0.861077     0.206219     0.000195  Biso 1.000000     H
    H   1.0     0.860911     0.206414     0.499864  Biso 1.000000     H
    H   1.0     0.861085     0.706214    -0.000275  Biso 1.000000     H
    H   1.0     0.861253     0.706005     0.499792  Biso 1.000000     H
    H   1.0     0.366761     0.400430    -0.000031  Biso 1.000000     H
    H   1.0     0.367183     0.400616     0.500172  Biso 1.000000     H
    H   1.0     0.366559     0.900297     0.000438  Biso 1.000000     H
    H   1.0     0.366255     0.900162     0.500019  Biso 1.000000     H
    H   1.0     0.866826     0.400392     0.000002  Biso 1.000000     H
    H   1.0     0.867316     0.400539     0.500071  Biso 1.000000     H
    H   1.0     0.866714     0.900407     0.000377  Biso 1.000000     H
    H   1.0     0.866201     0.900202     0.500029  Biso 1.000000     H
    H   1.0     0.360986     0.293632    -0.000038  Biso 1.000000     H
    H   1.0     0.361180     0.293831     0.500079  Biso 1.000000     H
    H   1.0     0.360907     0.793486     0.000396  Biso 1.000000     H
    H   1.0     0.360882     0.793323     0.500046  Biso 1.000000     H
    H   1.0     0.861107     0.293582    -0.000009  Biso 1.000000     H
    H   1.0     0.861263     0.293767     0.500089  Biso 1.000000     H
    H   1.0     0.861053     0.793586     0.000420  Biso 1.000000     H
    H   1.0     0.860904     0.793362     0.500024  Biso 1.000000     H
    H   1.0     0.132079    -0.000138     0.400479  Biso 1.000000     H
    H   1.0     0.132634     0.000036     0.900442  Biso 1.000000     H
    H   1.0     0.133358     0.499761     0.400299  Biso 1.000000     H
    H   1.0     0.132870     0.499544     0.900638  Biso 1.000000     H
    H   1.0     0.632096    -0.000146     0.400510  Biso 1.000000     H
    H   1.0     0.632454     0.000019     0.900286  Biso 1.000000     H
    H   1.0     0.633184     0.499863     0.400439  Biso 1.000000     H
    H   1.0     0.632765     0.499543     0.900434  Biso 1.000000     H
    H   1.0     0.137836    -0.000162     0.293703  Biso 1.000000     H
    H   1.0     0.138022     0.000026     0.793635  Biso 1.000000     H
    H   1.0     0.138831     0.499871     0.293495  Biso 1.000000     H
    H   1.0     0.138674     0.499587     0.793860  Biso 1.000000     H
    H   1.0     0.637780    -0.000168     0.293732  Biso 1.000000     H
    H   1.0     0.637911     0.000017     0.793488  Biso 1.000000     H
    H   1.0     0.638663     0.499856     0.293625  Biso 1.000000     H
    H   1.0     0.638521     0.499619     0.793652  Biso 1.000000     H
    H   1.0     0.132582     0.000188     0.099612  Biso 1.000000     H
    H   1.0     0.132081     0.000003     0.599553  Biso 1.000000     H
    H   1.0     0.132856     0.499762     0.099375  Biso 1.000000     H
    H   1.0     0.133346     0.500217     0.599716  Biso 1.000000     H
    H   1.0     0.632432     0.000170     0.099660  Biso 1.000000     H
    H   1.0     0.632097     0.000027     0.599435  Biso 1.000000     H
    H   1.0     0.632770     0.499834     0.099521  Biso 1.000000     H
    H   1.0     0.633170     0.500126     0.599530  Biso 1.000000     H
    H   1.0     0.138003     0.000206     0.206417  Biso 1.000000     H
    H   1.0     0.137855     0.000006     0.706330  Biso 1.000000     H
    H   1.0     0.138679     0.499863     0.206155  Biso 1.000000     H
    H   1.0     0.138829     0.500145     0.706521  Biso 1.000000     H
    H   1.0     0.637895     0.000209     0.206453  Biso 1.000000     H
    H   1.0     0.637800     0.000015     0.706211  Biso 1.000000     H
    H   1.0     0.638532     0.499834     0.206304  Biso 1.000000     H
    H   1.0     0.638658     0.500149     0.706343  Biso 1.000000     H
    H   1.0     0.132819     0.400528     0.000035  Biso 1.000000     H
    H   1.0     0.133298     0.400305     0.499828  Biso 1.000000     H
    H   1.0     0.132701     0.900585    -0.000430  Biso 1.000000     H
    H   1.0     0.132187     0.900759     0.499989  Biso 1.000000     H
    H   1.0     0.633143     0.400445     0.499911  Biso 1.000000     H
    H   1.0     0.632715     0.400520     0.999987  Biso 1.000000     H
    H   1.0     0.632216     0.900643     0.499979  Biso 1.000000     H
    H   1.0     0.632516     0.900491     0.999621  Biso 1.000000     H
    H   1.0     0.138376     0.293742     0.000053  Biso 1.000000     H
    H   1.0     0.138523     0.293501     0.499928  Biso 1.000000     H
    H   1.0     0.138320     0.793807    -0.000387  Biso 1.000000     H
    H   1.0     0.138162     0.794017     0.499951  Biso 1.000000     H
    H   1.0     0.638222     0.293734     0.000022  Biso 1.000000     H
    H   1.0     0.638426     0.293633     0.499897  Biso 1.000000     H
    H   1.0     0.638137     0.793720    -0.000405  Biso 1.000000     H
    H   1.0     0.638121     0.793892     0.499971  Biso 1.000000     H
    H   1.0     0.132682     0.099610    -0.000286  Biso 1.000000     H
    H   1.0     0.132150     0.099405     0.500143  Biso 1.000000     H
    H   1.0     0.132746     0.599692     0.000237  Biso 1.000000     H
    H   1.0     0.133251     0.599865     0.500286  Biso 1.000000     H
    H   1.0     0.632496     0.099652    -0.000194  Biso 1.000000     H
    H   1.0     0.632172     0.099534     0.500110  Biso 1.000000     H
    H   1.0     0.632653     0.599640     0.000336  Biso 1.000000     H
    H   1.0     0.633098     0.599737     0.500164  Biso 1.000000     H
    H   1.0     0.138344     0.206419    -0.000207  Biso 1.000000     H
    H   1.0     0.138170     0.206177     0.500169  Biso 1.000000     H
    H   1.0     0.138514     0.706698     0.500194  Biso 1.000000     H
    H   1.0     0.138353     0.706504     0.000283  Biso 1.000000     H
    H   1.0     0.638165     0.206450    -0.000201  Biso 1.000000     H
    H   1.0     0.638121     0.206316     0.500132  Biso 1.000000     H
    H   1.0     0.638196     0.706446     0.000267  Biso 1.000000     H
    H   1.0     0.638420     0.706578     0.500187  Biso 1.000000     H
    C   1.0    -0.000766     0.000005     0.282279  Biso 1.000000     C
    C   1.0    -0.000619     0.000002     0.782419  Biso 1.000000     C
    C   1.0     0.000195     0.500023     0.282256  Biso 1.000000     C
    C   1.0     0.000074     0.499982     0.782413  Biso 1.000000     C
    C   1.0     0.499176     0.000004     0.282345  Biso 1.000000     C
    C   1.0     0.499280     0.000002     0.782245  Biso 1.000000     C
    C   1.0     0.500027     0.499976     0.282375  Biso 1.000000     C
    C   1.0     0.499919     0.500017     0.782240  Biso 1.000000     C
    C   1.0    -0.000645    -0.000002     0.217621  Biso 1.000000     C
    C   1.0    -0.000744    -0.000001     0.717757  Biso 1.000000     C
    C   1.0     0.000079     0.500022     0.217601  Biso 1.000000     C
    C   1.0     0.000190     0.499977     0.717756  Biso 1.000000     C
    C   1.0     0.499258    -0.000002     0.217688  Biso 1.000000     C
    C   1.0     0.499194     0.000001     0.717592  Biso 1.000000     C
    C   1.0     0.499930     0.499963     0.217717  Biso 1.000000     C
    C   1.0     0.500018     0.500013     0.717584  Biso 1.000000     C
    C   1.0    -0.000272     0.217660     0.000010  Biso 1.000000     C
    C   1.0    -0.000403     0.217637     0.500014  Biso 1.000000     C
    C   1.0    -0.000277     0.717698     0.000023  Biso 1.000000     C
    C   1.0    -0.000149     0.717693     0.499984  Biso 1.000000     C
    C   1.0     0.499556     0.217692    -0.000018  Biso 1.000000     C
    C   1.0     0.499540     0.217730     0.499963  Biso 1.000000     C
    C   1.0     0.499567     0.717611    -0.000024  Biso 1.000000     C
    C   1.0     0.499760     0.717610     0.500001  Biso 1.000000     C
    C   1.0    -0.000247     0.282321     0.000018  Biso 1.000000     C
    C   1.0    -0.000139     0.282293     0.500021  Biso 1.000000     C
    C   1.0    -0.000299     0.782357     0.000030  Biso 1.000000     C
    C   1.0    -0.000411     0.782349     0.499985  Biso 1.000000     C
    C   1.0     0.499600     0.282345    -0.000013  Biso 1.000000     C
    C   1.0     0.499765     0.282389     0.499976  Biso 1.000000     C
    C   1.0     0.499527     0.782266    -0.000022  Biso 1.000000     C
    C   1.0     0.499539     0.782268     0.500010  Biso 1.000000     C
    C   1.0     0.425090     0.000090     0.375197  Biso 1.000000     C
    C   1.0     0.425409    -0.000012     0.875158  Biso 1.000000     C
    C   1.0     0.426126     0.500094     0.375287  Biso 1.000000     C
    C   1.0     0.425785     0.500227     0.875071  Biso 1.000000     C
    C   1.0     0.925066     0.000088     0.375109  Biso 1.000000     C
    C   1.0     0.925517     0.000005     0.875354  Biso 1.000000     C
    C   1.0     0.926283     0.500082     0.375169  Biso 1.000000     C
    C   1.0     0.925860     0.500215     0.875229  Biso 1.000000     C
    C   1.0     0.422896     0.000094     0.314698  Biso 1.000000     C
    C   1.0     0.423072    -0.000010     0.814665  Biso 1.000000     C
    C   1.0     0.423818     0.500063     0.314794  Biso 1.000000     C
    C   1.0     0.423623     0.500227     0.814569  Biso 1.000000     C
    C   1.0     0.922907     0.000088     0.314606  Biso 1.000000     C
    C   1.0     0.923163     0.000002     0.814862  Biso 1.000000     C
    C   1.0     0.923968     0.500093     0.314674  Biso 1.000000     C
    C   1.0     0.923739     0.500199     0.814730  Biso 1.000000     C
    C   1.0     0.425372    -0.000107     0.124759  Biso 1.000000     C
    C   1.0     0.425091    -0.000007     0.624744  Biso 1.000000     C
    C   1.0     0.425779     0.500069     0.124886  Biso 1.000000     C
    C   1.0     0.426111     0.499909     0.624670  Biso 1.000000     C
    C   1.0     0.925493    -0.000102     0.124678  Biso 1.000000     C
    C   1.0     0.925072    -0.000020     0.624919  Biso 1.000000     C
    C   1.0     0.925856     0.500087     0.124788  Biso 1.000000     C
    C   1.0     0.926272     0.499915     0.624837  Biso 1.000000     C
    C   1.0     0.423055    -0.000108     0.185258  Biso 1.000000     C
    C   1.0     0.422908    -0.000008     0.685242  Biso 1.000000     C
    C   1.0     0.423629     0.500054     0.185386  Biso 1.000000     C
    C   1.0     0.423807     0.499925     0.685162  Biso 1.000000     C
    C   1.0     0.923141    -0.000106     0.185172  Biso 1.000000     C
    C   1.0     0.922926    -0.000018     0.685424  Biso 1.000000     C
    C   1.0     0.923738     0.500090     0.185284  Biso 1.000000     C
    C   1.0     0.923963     0.499904     0.685331  Biso 1.000000     C
    C   1.0     0.425494     0.124777     0.000104  Biso 1.000000     C
    C   1.0     0.425231     0.124893     0.499882  Biso 1.000000     C
    C   1.0     0.425616     0.624650    -0.000146  Biso 1.000000     C
    C   1.0     0.426008     0.624586     0.499863  Biso 1.000000     C
    C   1.0     0.925642     0.124738     0.000110  Biso 1.000000     C
    C   1.0     0.925200     0.124821     0.499938  Biso 1.000000     C
    C   1.0     0.925705     0.624752    -0.000145  Biso 1.000000     C
    C   1.0     0.926132     0.624652     0.499888  Biso 1.000000     C
    C   1.0     0.423181     0.185396     0.499877  Biso 1.000000     C
    C   1.0     0.423288     0.185277     0.000000  Biso 1.000000     C
    C   1.0     0.423605     0.685073     0.499883  Biso 1.000000     C
    C   1.0     0.423346     0.685149     0.999829  Biso 1.000000     C
    C   1.0     0.923194     0.185323     0.499939  Biso 1.000000     C
    C   1.0     0.923436     0.185237     0.000000  Biso 1.000000     C
    C   1.0     0.923695     0.685138     0.499878  Biso 1.000000     C
    C   1.0     0.923458     0.685252     0.999855  Biso 1.000000     C
    C   1.0     0.426036     0.375304     0.500050  Biso 1.000000     C
    C   1.0     0.425667     0.375183     0.999967  Biso 1.000000     C
    C   1.0     0.425256     0.874996     0.500012  Biso 1.000000     C
    C   1.0     0.425498     0.875079     0.000000  Biso 1.000000     C
    C   1.0     0.926161     0.375225     0.500051  Biso 1.000000     C
    C   1.0     0.925747     0.375150     0.999996  Biso 1.000000     C
    C   1.0     0.925218     0.875056     0.500010  Biso 1.000000     C
    C   1.0     0.925646     0.875172     0.000000  Biso 1.000000     C
    C   1.0     0.423370     0.314685    -0.000028  Biso 1.000000     C
    C   1.0     0.423615     0.314812     0.500029  Biso 1.000000     C
    C   1.0     0.423267     0.814574     0.000191  Biso 1.000000     C
    C   1.0     0.423186     0.814488     0.500025  Biso 1.000000     C
    C   1.0     0.923482     0.314648     0.000005  Biso 1.000000     C
    C   1.0     0.923709     0.314733     0.500052  Biso 1.000000     C
    C   1.0     0.923415     0.814668     0.000233  Biso 1.000000     C
    C   1.0     0.923193     0.814549     0.500008  Biso 1.000000     C
    C   1.0     0.073162    -0.000073     0.375187  Biso 1.000000     C
    C   1.0     0.073634     0.000022     0.875227  Biso 1.000000     C
    C   1.0     0.074375     0.499910     0.375076  Biso 1.000000     C
    C   1.0     0.073969     0.499776     0.875331  Biso 1.000000     C
    C   1.0     0.573164    -0.000076     0.375235  Biso 1.000000     C
    C   1.0     0.573470     0.000006     0.875064  Biso 1.000000     C
    C   1.0     0.574210     0.499923     0.375198  Biso 1.000000     C
    C   1.0     0.573851     0.499785     0.875142  Biso 1.000000     C
    C   1.0     0.075447    -0.000087     0.314693  Biso 1.000000     C
    C   1.0     0.075705     0.000018     0.814725  Biso 1.000000     C
    C   1.0     0.076505     0.499938     0.314575  Biso 1.000000     C
    C   1.0     0.076279     0.499777     0.814840  Biso 1.000000     C
    C   1.0     0.575407    -0.000087     0.314743  Biso 1.000000     C
    C   1.0     0.575585     0.000006     0.814565  Biso 1.000000     C
    C   1.0     0.576337     0.499908     0.314701  Biso 1.000000     C
    C   1.0     0.576139     0.499802     0.814649  Biso 1.000000     C
    C   1.0     0.073595     0.000100     0.124829  Biso 1.000000     C
    C   1.0     0.073166    -0.000003     0.624845  Biso 1.000000     C
    C   1.0     0.073959     0.499911     0.124684  Biso 1.000000     C
    C   1.0     0.074363     0.500073     0.624937  Biso 1.000000     C
    C   1.0     0.573448     0.000094     0.124877  Biso 1.000000     C
    C   1.0     0.573169     0.000010     0.624710  Biso 1.000000     C
    C   1.0     0.573854     0.499893     0.124812  Biso 1.000000     C
    C   1.0     0.574198     0.500068     0.624768  Biso 1.000000     C
    C   1.0     0.075686     0.000112     0.185325  Biso 1.000000     C
    C   1.0     0.075463     0.000001     0.685340  Biso 1.000000     C
    C   1.0     0.076280     0.499930     0.185175  Biso 1.000000     C
    C   1.0     0.076500     0.500058     0.685439  Biso 1.000000     C
    C   1.0     0.575566     0.000109     0.185375  Biso 1.000000     C
    C   1.0     0.575423     0.000011     0.685201  Biso 1.000000     C
    C   1.0     0.576144     0.499894     0.185308  Biso 1.000000     C
    C   1.0     0.576329     0.500080     0.685266  Biso 1.000000     C
    C   1.0     0.073852     0.375236     0.000031  Biso 1.000000     C
    C   1.0     0.074255     0.375098     0.499956  Biso 1.000000     C
    C   1.0     0.073752     0.875280    -0.000195  Biso 1.000000     C
    C   1.0     0.073318     0.875379     0.499985  Biso 1.000000     C
    C   1.0     0.573738     0.375239     0.000001  Biso 1.000000     C
    C   1.0     0.574120     0.375209     0.499944  Biso 1.000000     C
    C   1.0     0.573564     0.875191    -0.000209  Biso 1.000000     C
    C   1.0     0.573329     0.875279     0.499987  Biso 1.000000     C
    C   1.0     0.076026     0.314737     0.000032  Biso 1.000000     C
    C   1.0     0.076245     0.314597     0.499969  Biso 1.000000     C
    C   1.0     0.075960     0.814787    -0.000189  Biso 1.000000     C
    C   1.0     0.075729     0.814895     0.499976  Biso 1.000000     C
    C   1.0     0.575884     0.314745    -0.000002  Biso 1.000000     C
    C   1.0     0.576136     0.314710     0.499935  Biso 1.000000     C
    C   1.0     0.575777     0.814699    -0.000227  Biso 1.000000     C
    C   1.0     0.575702     0.814790     0.499992  Biso 1.000000     C
    C   1.0     0.073749     0.124843    -0.000117  Biso 1.000000     C
    C   1.0     0.073299     0.124714     0.500087  Biso 1.000000     C
    C   1.0     0.073803     0.624910     0.000136  Biso 1.000000     C
    C   1.0     0.074226     0.624999     0.500113  Biso 1.000000     C
    C   1.0     0.573564     0.124878    -0.000115  Biso 1.000000     C
    C   1.0     0.573303     0.124827     0.500046  Biso 1.000000     C
    C   1.0     0.573696     0.624839     0.000139  Biso 1.000000     C
    C   1.0     0.574093     0.624900     0.500087  Biso 1.000000     C
    C   1.0     0.075978     0.185342    -0.000104  Biso 1.000000     C
    C   1.0     0.075730     0.185205     0.500098  Biso 1.000000     C
    C   1.0     0.076002     0.685408     0.000154  Biso 1.000000     C
    C   1.0     0.076231     0.685506     0.500093  Biso 1.000000     C
    C   1.0     0.575800     0.185374    -0.000111  Biso 1.000000     C
    C   1.0     0.575697     0.185322     0.500051  Biso 1.000000     C
    C   1.0     0.575857     0.685334     0.000131  Biso 1.000000     C
    C   1.0     0.576126     0.685404     0.500097  Biso 1.000000     C
    N   1.0    -0.000903     0.000005     0.405486  Biso 1.000000     N
    N   1.0    -0.000354     0.000013     0.905622  Biso 1.000000     N
    N   1.0     0.000383     0.499991     0.405461  Biso 1.000000     N
    N   1.0    -0.000115     0.500001     0.905613  Biso 1.000000     N
    N   1.0     0.499115    -0.000001     0.405556  Biso 1.000000     N
    N   1.0     0.499485    -0.000004     0.905451  Biso 1.000000     N
    N   1.0     0.500210     0.500006     0.405577  Biso 1.000000     N
    N   1.0     0.499791     0.499999     0.905444  Biso 1.000000     N
    N   1.0    -0.000382     0.000005     0.094417  Biso 1.000000     N
    N   1.0    -0.000901    -0.000011     0.594540  Biso 1.000000     N
    N   1.0    -0.000127     0.500000     0.094401  Biso 1.000000     N
    N   1.0     0.000369     0.499996     0.594546  Biso 1.000000     N
    N   1.0     0.499460    -0.000011     0.094482  Biso 1.000000     N
    N   1.0     0.499115     0.000009     0.594390  Biso 1.000000     N
    N   1.0     0.499784     0.499982     0.094513  Biso 1.000000     N
    N   1.0     0.500196     0.499993     0.594386  Biso 1.000000     N
    N   1.0    -0.000300     0.094455     0.000001  Biso 1.000000     N
    N   1.0    -0.000836     0.094428     0.500010  Biso 1.000000     N
    N   1.0    -0.000218     0.594495    -0.000002  Biso 1.000000     N
    N   1.0     0.000287     0.594487     0.500005  Biso 1.000000     N
    N   1.0     0.499521     0.094490    -0.000009  Biso 1.000000     N
    N   1.0     0.499187     0.094522     0.499969  Biso 1.000000     N
    N   1.0     0.499685     0.594410     0.000001  Biso 1.000000     N
    N   1.0     0.500134     0.594410     0.499976  Biso 1.000000     N
    N   1.0    -0.000173     0.405524     0.000017  Biso 1.000000     N
    N   1.0     0.000327     0.405500     0.499999  Biso 1.000000     N
    N   1.0    -0.000284     0.905558     0.000014  Biso 1.000000     N
    N   1.0    -0.000804     0.905556     0.500004  Biso 1.000000     N
    N   1.0     0.499731     0.405547    -0.000013  Biso 1.000000     N
    N   1.0     0.500173     0.405590     0.499995  Biso 1.000000     N
    N   1.0     0.499536     0.905473    -0.000006  Biso 1.000000     N
    N   1.0     0.499225     0.905476     0.499992  Biso 1.000000     N
    F   1.0     0.362918     0.000009    -0.000310  Biso 1.000000     F
    F   1.0     0.362121     0.000017     0.499993  Biso 1.000000     F
    F   1.0     0.362956     0.499694     0.000000  Biso 1.000000     F
    F   1.0     0.363026     0.500016     0.499994  Biso 1.000000     F
    F   1.0     0.862254     0.000013     0.000003  Biso 1.000000     F
    F   1.0     0.862107     0.000017     0.499995  Biso 1.000000     F
    F   1.0     0.862665     0.499859     0.000147  Biso 1.000000     F
    F   1.0     0.863752     0.500009     0.499993  Biso 1.000000     F
    F   1.0     0.136935    -0.000009     0.000310  Biso 1.000000     F
    F   1.0     0.136020    -0.000014     0.499993  Biso 1.000000     F
    F   1.0     0.136967     0.500296     0.000000  Biso 1.000000     F
    F   1.0     0.137037     0.499977     0.499995  Biso 1.000000     F
    F   1.0     0.636182    -0.000014    -0.000003  Biso 1.000000     F
    F   1.0     0.636032    -0.000013     0.499991  Biso 1.000000     F
    F   1.0     0.636642     0.500131    -0.000149  Biso 1.000000     F
    F   1.0     0.637686     0.499985     0.499992  Biso 1.000000     F
    F   1.0     0.248488     0.447658     0.447654  Biso 1.000000     F
    F   1.0     0.248469     0.447660     0.947645  Biso 1.000000     F
    F   1.0     0.248329     0.947652     0.447653  Biso 1.000000     F
    F   1.0     0.248446     0.947652     0.947646  Biso 1.000000     F
    F   1.0     0.751517     0.447657     0.447653  Biso 1.000000     F
    F   1.0     0.748426     0.447659     0.947643  Biso 1.000000     F
    F   1.0     0.748320     0.947651     0.447652  Biso 1.000000     F
    F   1.0     0.748367     0.947652     0.947645  Biso 1.000000     F
    F   1.0     0.251464     0.052341     0.052337  Biso 1.000000     F
    F   1.0     0.248394     0.052342     0.552333  Biso 1.000000     F
    F   1.0     0.251475     0.552333     0.052340  Biso 1.000000     F
    F   1.0     0.248552     0.552336     0.552330  Biso 1.000000     F
    F   1.0     0.748434     0.052340     0.052340  Biso 1.000000     F
    F   1.0     0.748384     0.052343     0.552334  Biso 1.000000     F
    F   1.0     0.748489     0.552336     0.052337  Biso 1.000000     F
    F   1.0     0.751571     0.552338     0.552334  Biso 1.000000     F
    F   1.0     0.248392     0.052342     0.447653  Biso 1.000000     F
    F   1.0     0.248502     0.052344     0.947647  Biso 1.000000     F
    F   1.0     0.251536     0.552336     0.447653  Biso 1.000000     F
    F   1.0     0.251488     0.552337     0.947645  Biso 1.000000     F
    F   1.0     0.748384     0.052342     0.447652  Biso 1.000000     F
    F   1.0     0.748423     0.052344     0.947645  Biso 1.000000     F
    F   1.0     0.751580     0.552338     0.447652  Biso 1.000000     F
    F   1.0     0.751458     0.552336     0.947649  Biso 1.000000     F
    F   1.0     0.248472     0.447656     0.052341  Biso 1.000000     F
    F   1.0     0.251481     0.447657     0.552332  Biso 1.000000     F
    F   1.0     0.251408     0.947651     0.052336  Biso 1.000000     F
    F   1.0     0.248335     0.947652     0.552334  Biso 1.000000     F
    F   1.0     0.748450     0.447655     0.052340  Biso 1.000000     F
    F   1.0     0.751529     0.447656     0.552334  Biso 1.000000     F
    F   1.0     0.748382     0.947649     0.052341  Biso 1.000000     F
    F   1.0     0.748325     0.947651     0.552334  Biso 1.000000     F
   Si   1.0     0.249965    -0.000000    -0.000002  Biso 1.000000    Si
   Si   1.0     0.248897     0.000001     0.499993  Biso 1.000000    Si
   Si   1.0     0.249985     0.499994    -0.000000  Biso 1.000000    Si
   Si   1.0     0.249973     0.499997     0.499993  Biso 1.000000    Si
   Si   1.0     0.748908    -0.000001    -0.000000  Biso 1.000000    Si
   Si   1.0     0.748887     0.000002     0.499993  Biso 1.000000    Si
   Si   1.0     0.749478     0.499995    -0.000001  Biso 1.000000    Si
   Si   1.0     0.750999     0.499997     0.499993  Biso 1.000000    Si
   Zn   1.0    -0.000154     0.000007     0.000002  Biso 1.000000    Zn
   Zn   1.0    -0.000505    -0.000000     0.500005  Biso 1.000000    Zn
   Zn   1.0    -0.000097     0.499997     0.000001  Biso 1.000000    Zn
   Zn   1.0     0.000234     0.499995     0.500000  Biso 1.000000    Zn
   Zn   1.0     0.499762    -0.000008    -0.000000  Biso 1.000000    Zn
   Zn   1.0     0.499514     0.000003     0.499981  Biso 1.000000    Zn
   Zn   1.0     0.499877     0.499993    -0.000001  Biso 1.000000    Zn
   Zn   1.0     0.500151     0.499999     0.499986  Biso 1.000000    Zn
