#======================================================================

# CRYSTAL DATA

#----------------------------------------------------------------------

data_VESTA_phase_1


_pd_phase_name                         MOF
_cell_length_a                         23.00300
_cell_length_b                         23.02100
_cell_length_c                         18.81800
_cell_angle_alpha                      94.39500
_cell_angle_beta                       93.65800
_cell_angle_gamma                      97.78000
_symmetry_space_group_name_H-M         "P 1"
_symmetry_Int_Tables_number            1

loop_
_symmetry_equiv_pos_as_xyz
   "x, y, z"

loop_
   _atom_site_label
   _atom_site_occupancy
   _atom_site_fract_x
   _atom_site_fract_y
   _atom_site_fract_z
   _atom_site_adp_type
   _atom_site_B_iso_or_equiv
   _atom_site_type_symbol
    H   1.0     0.383632     0.108674     0.636602  Biso 1.000000     H
    H   1.0     0.382957     0.608969     0.634531  Biso 1.000000     H
    H   1.0     0.883480     0.108224     0.636702  Biso 1.000000     H
    H   1.0     0.883176     0.608947     0.634338  Biso 1.000000     H
    H   1.0     0.146997     0.167451     0.535056  Biso 1.000000     H
    H   1.0     0.146703     0.667319     0.532901  Biso 1.000000     H
    H   1.0     0.647071     0.167506     0.535504  Biso 1.000000     H
    H   1.0     0.646637     0.667412     0.532919  Biso 1.000000     H
    H   1.0     0.240078     0.222488     0.595333  Biso 1.000000     H
    H   1.0     0.239654     0.722477     0.593309  Biso 1.000000     H
    H   1.0     0.740168     0.222412     0.595872  Biso 1.000000     H
    H   1.0     0.739677     0.722557     0.593104  Biso 1.000000     H
    H   1.0     0.272763     0.067402     0.696860  Biso 1.000000     H
    H   1.0     0.271833     0.567878     0.696189  Biso 1.000000     H
    H   1.0     0.772871     0.067082     0.696837  Biso 1.000000     H
    H   1.0     0.772096     0.567915     0.695745  Biso 1.000000     H
    H   1.0     0.312070     0.228332     0.701920  Biso 1.000000     H
    H   1.0     0.311289     0.728630     0.700584  Biso 1.000000     H
    H   1.0     0.812210     0.228061     0.702312  Biso 1.000000     H
    H   1.0     0.811646     0.728714     0.699925  Biso 1.000000     H
    H   1.0     0.354415     0.185930     0.650882  Biso 1.000000     H
    H   1.0     0.353623     0.686481     0.649190  Biso 1.000000     H
    H   1.0     0.854515     0.185696     0.651153  Biso 1.000000     H
    H   1.0     0.853829     0.686315     0.648650  Biso 1.000000     H
    H   1.0     0.180270     0.012641     0.635297  Biso 1.000000     H
    H   1.0     0.179393     0.513007     0.634613  Biso 1.000000     H
    H   1.0     0.680338     0.012446     0.635202  Biso 1.000000     H
    H   1.0     0.679570     0.513055     0.634382  Biso 1.000000     H
    H   1.0     0.388745     0.115032     0.868325  Biso 1.000000     H
    H   1.0     0.389303     0.615876     0.866323  Biso 1.000000     H
    H   1.0     0.889729     0.115284     0.868499  Biso 1.000000     H
    H   1.0     0.889402     0.616084     0.866139  Biso 1.000000     H
    H   1.0     0.329727     0.354848     0.967145  Biso 1.000000     H
    H   1.0     0.330260     0.853170     0.969138  Biso 1.000000     H
    H   1.0     0.829767     0.354679     0.967118  Biso 1.000000     H
    H   1.0     0.832543     0.853841     0.968818  Biso 1.000000     H
    H   1.0     0.274770     0.260664     0.909038  Biso 1.000000     H
    H   1.0     0.275216     0.759533     0.909735  Biso 1.000000     H
    H   1.0     0.774951     0.260374     0.909160  Biso 1.000000     H
    H   1.0     0.776751     0.760408     0.909818  Biso 1.000000     H
    H   1.0     0.430030     0.225395     0.806618  Biso 1.000000     H
    H   1.0     0.429914     0.726058     0.804927  Biso 1.000000     H
    H   1.0     0.930266     0.225295     0.806736  Biso 1.000000     H
    H   1.0     0.930404     0.726133     0.803273  Biso 1.000000     H
    H   1.0     0.269073     0.186011     0.804137  Biso 1.000000     H
    H   1.0     0.269108     0.686403     0.802991  Biso 1.000000     H
    H   1.0     0.769309     0.185492     0.804646  Biso 1.000000     H
    H   1.0     0.769702     0.687295     0.802684  Biso 1.000000     H
    H   1.0     0.311964     0.144961     0.855130  Biso 1.000000     H
    H   1.0     0.311809     0.644766     0.853365  Biso 1.000000     H
    H   1.0     0.812543     0.144668     0.855523  Biso 1.000000     H
    H   1.0     0.812131     0.645492     0.853171  Biso 1.000000     H
    H   1.0     0.484660     0.319007     0.865943  Biso 1.000000     H
    H   1.0     0.484650     0.819133     0.865537  Biso 1.000000     H
    H   1.0     0.984752     0.319020     0.865907  Biso 1.000000     H
    H   1.0     0.985849     0.819066     0.863352  Biso 1.000000     H
    H   1.0     0.116545     0.391742     0.363257  Biso 1.000000     H
    H   1.0     0.116920     0.891138     0.365630  Biso 1.000000     H
    H   1.0     0.616521     0.391887     0.363371  Biso 1.000000     H
    H   1.0     0.617164     0.891433     0.365246  Biso 1.000000     H
    H   1.0     0.352929     0.332344     0.464480  Biso 1.000000     H
    H   1.0     0.353246     0.832727     0.467300  Biso 1.000000     H
    H   1.0     0.852819     0.332542     0.464693  Biso 1.000000     H
    H   1.0     0.853115     0.832639     0.466751  Biso 1.000000     H
    H   1.0     0.259854     0.277476     0.404016  Biso 1.000000     H
    H   1.0     0.260215     0.777588     0.407071  Biso 1.000000     H
    H   1.0     0.759701     0.277668     0.404346  Biso 1.000000     H
    H   1.0     0.760131     0.777680     0.406200  Biso 1.000000     H
    H   1.0     0.227188     0.432893     0.303219  Biso 1.000000     H
    H   1.0     0.227993     0.932152     0.304139  Biso 1.000000     H
    H   1.0     0.727162     0.432945     0.303157  Biso 1.000000     H
    H   1.0     0.728315     0.932464     0.303502  Biso 1.000000     H
    H   1.0     0.187815     0.271911     0.297561  Biso 1.000000     H
    H   1.0     0.188426     0.771373     0.300067  Biso 1.000000     H
    H   1.0     0.687705     0.271980     0.297868  Biso 1.000000     H
    H   1.0     0.688507     0.771744     0.298939  Biso 1.000000     H
    H   1.0     0.145512     0.314257     0.348748  Biso 1.000000     H
    H   1.0     0.146186     0.813743     0.351294  Biso 1.000000     H
    H   1.0     0.645435     0.314410     0.348986  Biso 1.000000     H
    H   1.0     0.646302     0.813939     0.350454  Biso 1.000000     H
    H   1.0     0.319696     0.487493     0.364956  Biso 1.000000     H
    H   1.0     0.320495     0.987012     0.365569  Biso 1.000000     H
    H   1.0     0.819700     0.487559     0.364807  Biso 1.000000     H
    H   1.0     0.820785     0.987147     0.365232  Biso 1.000000     H
    H   1.0     0.110340     0.384764     0.131466  Biso 1.000000     H
    H   1.0     0.110633     0.883969     0.133827  Biso 1.000000     H
    H   1.0     0.610314     0.384769     0.131576  Biso 1.000000     H
    H   1.0     0.610334     0.884685     0.133437  Biso 1.000000     H
    H   1.0     0.170211     0.145356     0.032784  Biso 1.000000     H
    H   1.0     0.167396     0.646287     0.030952  Biso 1.000000     H
    H   1.0     0.667305     0.145962     0.030752  Biso 1.000000     H
    H   1.0     0.667485     0.646232     0.031182  Biso 1.000000     H
    H   1.0     0.225042     0.239660     0.090714  Biso 1.000000     H
    H   1.0     0.223186     0.739733     0.089907  Biso 1.000000     H
    H   1.0     0.722976     0.239829     0.088733  Biso 1.000000     H
    H   1.0     0.723180     0.739855     0.089774  Biso 1.000000     H
    H   1.0     0.069736     0.274785     0.193136  Biso 1.000000     H
    H   1.0     0.069723     0.773740     0.197019  Biso 1.000000     H
    H   1.0     0.569374     0.274558     0.195105  Biso 1.000000     H
    H   1.0     0.569490     0.774305     0.196131  Biso 1.000000     H
    H   1.0     0.230720     0.314498     0.195256  Biso 1.000000     H
    H   1.0     0.230335     0.812739     0.197267  Biso 1.000000     H
    H   1.0     0.730042     0.313558     0.195191  Biso 1.000000     H
    H   1.0     0.730245     0.813487     0.196112  Biso 1.000000     H
    H   1.0     0.187517     0.355376     0.144418  Biso 1.000000     H
    H   1.0     0.187888     0.854511     0.146762  Biso 1.000000     H
    H   1.0     0.687398     0.355016     0.144482  Biso 1.000000     H
    H   1.0     0.687351     0.854978     0.145799  Biso 1.000000     H
    H   1.0     0.015234     0.181067     0.133977  Biso 1.000000     H
    H   1.0     0.014267     0.680797     0.136970  Biso 1.000000     H
    H   1.0     0.514063     0.181159     0.136082  Biso 1.000000     H
    H   1.0     0.514150     0.681158     0.136493  Biso 1.000000     H
    H   1.0     0.493463     0.005805     0.751801  Biso 1.000000     H
    H   1.0     0.493190     0.506119     0.749278  Biso 1.000000     H
    H   1.0     0.994714     0.006526     0.751664  Biso 1.000000     H
    H   1.0     0.993196     0.506067     0.749317  Biso 1.000000     H
    H   1.0     0.005239     0.493384     0.248308  Biso 1.000000     H
    H   1.0     0.006822     0.993955     0.250669  Biso 1.000000     H
    H   1.0     0.505281     0.493527     0.248326  Biso 1.000000     H
    H   1.0     0.506049     0.993717     0.250965  Biso 1.000000     H
    C   1.0     0.399585     0.096212     0.688066  Biso 1.000000     C
    C   1.0     0.399142     0.596561     0.685929  Biso 1.000000     C
    C   1.0     0.899823     0.096059     0.688149  Biso 1.000000     C
    C   1.0     0.899302     0.596570     0.685776  Biso 1.000000     C
    C   1.0     0.440233     0.056247     0.688197  Biso 1.000000     C
    C   1.0     0.439742     0.556524     0.685887  Biso 1.000000     C
    C   1.0     0.940740     0.056375     0.688191  Biso 1.000000     C
    C   1.0     0.939845     0.556488     0.685824  Biso 1.000000     C
    C   1.0     0.101201     0.054077     0.548189  Biso 1.000000     C
    C   1.0     0.100679     0.554068     0.546490  Biso 1.000000     C
    C   1.0     0.601228     0.054059     0.548339  Biso 1.000000     C
    C   1.0     0.600691     0.554122     0.546490  Biso 1.000000     C
    C   1.0     0.262951     0.148497     0.649981  Biso 1.000000     C
    C   1.0     0.262289     0.648741     0.648652  Biso 1.000000     C
    C   1.0     0.763049     0.148297     0.650262  Biso 1.000000     C
    C   1.0     0.762445     0.648799     0.648308  Biso 1.000000     C
    C   1.0     0.158125     0.086586     0.581257  Biso 1.000000     C
    C   1.0     0.157513     0.586675     0.579806  Biso 1.000000     C
    C   1.0     0.658176     0.086520     0.581436  Biso 1.000000     C
    C   1.0     0.657562     0.586740     0.579701  Biso 1.000000     C
    C   1.0     0.175319     0.145766     0.569849  Biso 1.000000     C
    C   1.0     0.174861     0.645760     0.568052  Biso 1.000000     C
    C   1.0     0.675386     0.145735     0.570205  Biso 1.000000     C
    C   1.0     0.674864     0.645837     0.567966  Biso 1.000000     C
    C   1.0     0.227341     0.176228     0.603825  Biso 1.000000     C
    C   1.0     0.226829     0.676290     0.602095  Biso 1.000000     C
    C   1.0     0.727424     0.176126     0.604233  Biso 1.000000     C
    C   1.0     0.726886     0.676363     0.601885  Biso 1.000000     C
    C   1.0     0.245700     0.089323     0.660791  Biso 1.000000     C
    C   1.0     0.244883     0.589675     0.659840  Biso 1.000000     C
    C   1.0     0.745791     0.089084     0.660878  Biso 1.000000     C
    C   1.0     0.745076     0.589723     0.659491  Biso 1.000000     C
    C   1.0     0.319018     0.182609     0.687697  Biso 1.000000     C
    C   1.0     0.318385     0.682972     0.686220  Biso 1.000000     C
    C   1.0     0.819142     0.182345     0.688001  Biso 1.000000     C
    C   1.0     0.818619     0.682994     0.685727  Biso 1.000000     C
    C   1.0     0.193961     0.058533     0.626622  Biso 1.000000     C
    C   1.0     0.193165     0.558823     0.625647  Biso 1.000000     C
    C   1.0     0.694030     0.058367     0.626670  Biso 1.000000     C
    C   1.0     0.693305     0.558878     0.625421  Biso 1.000000     C
    C   1.0     0.461202     0.034632     0.618806  Biso 1.000000     C
    C   1.0     0.460459     0.534709     0.616403  Biso 1.000000     C
    C   1.0     0.961418     0.034630     0.618718  Biso 1.000000     C
    C   1.0     0.960540     0.534649     0.616358  Biso 1.000000     C
    C   1.0     0.401623     0.098954     0.816674  Biso 1.000000     C
    C   1.0     0.401879     0.599626     0.814595  Biso 1.000000     C
    C   1.0     0.902516     0.099193     0.816806  Biso 1.000000     C
    C   1.0     0.901981     0.599762     0.814444  Biso 1.000000     C
    C   1.0     0.442068     0.058781     0.816016  Biso 1.000000     C
    C   1.0     0.442281     0.559412     0.813799  Biso 1.000000     C
    C   1.0     0.943289     0.059342     0.816045  Biso 1.000000     C
    C   1.0     0.942334     0.559488     0.813735  Biso 1.000000     C
    C   1.0     0.443395     0.399808     0.952439  Biso 1.000000     C
    C   1.0     0.443617     0.898856     0.953995  Biso 1.000000     C
    C   1.0     0.943413     0.399771     0.952384  Biso 1.000000     C
    C   1.0     0.945778     0.899010     0.952593  Biso 1.000000     C
    C   1.0     0.348852     0.236386     0.854130  Biso 1.000000     C
    C   1.0     0.348993     0.736187     0.853479  Biso 1.000000     C
    C   1.0     0.849069     0.236168     0.854279  Biso 1.000000     C
    C   1.0     0.849957     0.736677     0.852725  Biso 1.000000     C
    C   1.0     0.410658     0.342520     0.920341  Biso 1.000000     C
    C   1.0     0.410937     0.841740     0.921209  Biso 1.000000     C
    C   1.0     0.910724     0.342448     0.920316  Biso 1.000000     C
    C   1.0     0.912720     0.842034     0.919929  Biso 1.000000     C
    C   1.0     0.351458     0.325754     0.932611  Biso 1.000000     C
    C   1.0     0.351864     0.824585     0.933784  Biso 1.000000     C
    C   1.0     0.851544     0.325604     0.932614  Biso 1.000000     C
    C   1.0     0.853739     0.825137     0.933140  Biso 1.000000     C
    C   1.0     0.321044     0.273087     0.899866  Biso 1.000000     C
    C   1.0     0.321393     0.772224     0.900293  Biso 1.000000     C
    C   1.0     0.821209     0.272865     0.899958  Biso 1.000000     C
    C   1.0     0.822857     0.772886     0.899892  Biso 1.000000     C
    C   1.0     0.408028     0.253279     0.842388  Biso 1.000000     C
    C   1.0     0.408050     0.753432     0.841472  Biso 1.000000     C
    C   1.0     0.908215     0.253160     0.842470  Biso 1.000000     C
    C   1.0     0.908921     0.753659     0.840073  Biso 1.000000     C
    C   1.0     0.314909     0.179555     0.817732  Biso 1.000000     C
    C   1.0     0.314894     0.679679     0.816384  Biso 1.000000     C
    C   1.0     0.815225     0.179216     0.818062  Biso 1.000000     C
    C   1.0     0.815404     0.680256     0.815989  Biso 1.000000     C
    C   1.0     0.438751     0.305655     0.875293  Biso 1.000000     C
    C   1.0     0.438838     0.805514     0.875122  Biso 1.000000     C
    C   1.0     0.938860     0.305606     0.875288  Biso 1.000000     C
    C   1.0     0.940109     0.805660     0.873435  Biso 1.000000     C
    C   1.0     0.463903     0.038494     0.885027  Biso 1.000000     C
    C   1.0     0.464293     0.539362     0.882903  Biso 1.000000     C
    C   1.0     0.965418     0.039228     0.885028  Biso 1.000000     C
    C   1.0     0.964288     0.539404     0.882857  Biso 1.000000     C
    C   1.0     0.100193     0.403907     0.311814  Biso 1.000000     C
    C   1.0     0.100765     0.903496     0.314196  Biso 1.000000     C
    C   1.0     0.600182     0.404035     0.311914  Biso 1.000000     C
    C   1.0     0.600774     0.903772     0.313905  Biso 1.000000     C
    C   1.0     0.059250     0.443566     0.311782  Biso 1.000000     C
    C   1.0     0.060201     0.943555     0.314159  Biso 1.000000     C
    C   1.0     0.559262     0.443713     0.311847  Biso 1.000000     C
    C   1.0     0.560006     0.943626     0.314124  Biso 1.000000     C
    C   1.0     0.398765     0.445858     0.451813  Biso 1.000000     C
    C   1.0     0.399278     0.945955     0.453597  Biso 1.000000     C
    C   1.0     0.898750     0.445950     0.451757  Biso 1.000000     C
    C   1.0     0.899311     0.945932     0.453420  Biso 1.000000     C
    C   1.0     0.236993     0.351636     0.349699  Biso 1.000000     C
    C   1.0     0.237555     0.851306     0.351715  Biso 1.000000     C
    C   1.0     0.736907     0.351754     0.349830  Biso 1.000000     C
    C   1.0     0.737665     0.851525     0.350951  Biso 1.000000     C
    C   1.0     0.341842     0.413381     0.418647  Biso 1.000000     C
    C   1.0     0.342411     0.913356     0.420376  Biso 1.000000     C
    C   1.0     0.841795     0.413505     0.418659  Biso 1.000000     C
    C   1.0     0.842485     0.913383     0.419977  Biso 1.000000     C
    C   1.0     0.324632     0.354146     0.429790  Biso 1.000000     C
    C   1.0     0.325060     0.854284     0.432183  Biso 1.000000     C
    C   1.0     0.824537     0.354309     0.429945  Biso 1.000000     C
    C   1.0     0.825033     0.854291     0.431614  Biso 1.000000     C
    C   1.0     0.272601     0.323774     0.395712  Biso 1.000000     C
    C   1.0     0.273050     0.823763     0.398235  Biso 1.000000     C
    C   1.0     0.772485     0.323936     0.395930  Biso 1.000000     C
    C   1.0     0.773044     0.823868     0.397486  Biso 1.000000     C
    C   1.0     0.254253     0.410864     0.339163  Biso 1.000000     C
    C   1.0     0.254967     0.910360     0.340465  Biso 1.000000     C
    C   1.0     0.754207     0.410949     0.339163  Biso 1.000000     C
    C   1.0     0.755190     0.910587     0.339848  Biso 1.000000     C
    C   1.0     0.180897     0.317625     0.311916  Biso 1.000000     C
    C   1.0     0.181418     0.817084     0.314247  Biso 1.000000     C
    C   1.0     0.680799     0.317711     0.312119  Biso 1.000000     C
    C   1.0     0.681508     0.817420     0.313374  Biso 1.000000     C
    C   1.0     0.306004     0.441559     0.373423  Biso 1.000000     C
    C   1.0     0.306721     0.941205     0.374576  Biso 1.000000     C
    C   1.0     0.805977     0.441651     0.373372  Biso 1.000000     C
    C   1.0     0.806927     0.941332     0.374128  Biso 1.000000     C
    C   1.0     0.038567     0.465312     0.381259  Biso 1.000000     C
    C   1.0     0.039492     0.965365     0.383632  Biso 1.000000     C
    C   1.0     0.538563     0.465454     0.381307  Biso 1.000000     C
    C   1.0     0.539441     0.965391     0.383698  Biso 1.000000     C
    C   1.0     0.097523     0.400818     0.183159  Biso 1.000000     C
    C   1.0     0.098061     0.900288     0.185527  Biso 1.000000     C
    C   1.0     0.597506     0.400862     0.183255  Biso 1.000000     C
    C   1.0     0.597750     0.900786     0.185226  Biso 1.000000     C
    C   1.0     0.056721     0.440637     0.183926  Biso 1.000000     C
    C   1.0     0.057700     0.940552     0.186248  Biso 1.000000     C
    C   1.0     0.556741     0.440718     0.183991  Biso 1.000000     C
    C   1.0     0.557114     0.940770     0.186217  Biso 1.000000     C
    C   1.0     0.056586     0.100260     0.047573  Biso 1.000000     C
    C   1.0     0.054240     0.600993     0.047429  Biso 1.000000     C
    C   1.0     0.554308     0.100662     0.047670  Biso 1.000000     C
    C   1.0     0.554252     0.601059     0.047435  Biso 1.000000     C
    C   1.0     0.150938     0.263882     0.145614  Biso 1.000000     C
    C   1.0     0.150071     0.763334     0.147279  Biso 1.000000     C
    C   1.0     0.649782     0.263813     0.145660  Biso 1.000000     C
    C   1.0     0.649947     0.763714     0.146716  Biso 1.000000     C
    C   1.0     0.089263     0.157602     0.079594  Biso 1.000000     C
    C   1.0     0.087302     0.657965     0.080107  Biso 1.000000     C
    C   1.0     0.587173     0.157955     0.079636  Biso 1.000000     C
    C   1.0     0.587286     0.658101     0.079984  Biso 1.000000     C
    C   1.0     0.148441     0.174442     0.067281  Biso 1.000000     C
    C   1.0     0.146237     0.674934     0.066745  Biso 1.000000     C
    C   1.0     0.646092     0.174865     0.066152  Biso 1.000000     C
    C   1.0     0.646255     0.675008     0.066728  Biso 1.000000     C
    C   1.0     0.178785     0.227180     0.099925  Biso 1.000000     C
    C   1.0     0.177120     0.727192     0.099971  Biso 1.000000     C
    C   1.0     0.676905     0.227358     0.098823  Biso 1.000000     C
    C   1.0     0.677084     0.727374     0.099745  Biso 1.000000     C
    C   1.0     0.091784     0.246910     0.157409  Biso 1.000000     C
    C   1.0     0.091162     0.746268     0.160106  Biso 1.000000     C
    C   1.0     0.590868     0.246836     0.158551  Biso 1.000000     C
    C   1.0     0.591007     0.746698     0.159463  Biso 1.000000     C
    C   1.0     0.184813     0.320811     0.181856  Biso 1.000000     C
    C   1.0     0.184629     0.819770     0.183975  Biso 1.000000     C
    C   1.0     0.684287     0.320441     0.181912  Biso 1.000000     C
    C   1.0     0.684432     0.820311     0.183109  Biso 1.000000     C
    C   1.0     0.061129     0.194466     0.124598  Biso 1.000000     C
    C   1.0     0.059969     0.694261     0.126758  Biso 1.000000     C
    C   1.0     0.559753     0.194576     0.125777  Biso 1.000000     C
    C   1.0     0.559875     0.694571     0.126344  Biso 1.000000     C
    C   1.0     0.034595     0.460766     0.114949  Biso 1.000000     C
    C   1.0     0.035736     0.960621     0.117126  Biso 1.000000     C
    C   1.0     0.534617     0.460808     0.114998  Biso 1.000000     C
    C   1.0     0.534789     0.960831     0.117271  Biso 1.000000     C
    C   1.0     0.379317     0.118613     0.752487  Biso 1.000000     C
    C   1.0     0.379188     0.619089     0.750494  Biso 1.000000     C
    C   1.0     0.879754     0.118532     0.752653  Biso 1.000000     C
    C   1.0     0.879343     0.619185     0.750279  Biso 1.000000     C
    C   1.0     0.461937     0.036932     0.751969  Biso 1.000000     C
    C   1.0     0.461740     0.537327     0.749609  Biso 1.000000     C
    C   1.0     0.962981     0.037448     0.751931  Biso 1.000000     C
    C   1.0     0.961789     0.537319     0.749583  Biso 1.000000     C
    C   1.0     0.120284     0.381465     0.247305  Biso 1.000000     C
    C   1.0     0.120711     0.880876     0.249686  Biso 1.000000     C
    C   1.0     0.620232     0.381522     0.247425  Biso 1.000000     C
    C   1.0     0.620623     0.881314     0.249243  Biso 1.000000     C
    C   1.0     0.036996     0.462487     0.248043  Biso 1.000000     C
    C   1.0     0.038245     0.962719     0.250402  Biso 1.000000     C
    C   1.0     0.537027     0.462619     0.248090  Biso 1.000000     C
    C   1.0     0.537691     0.962701     0.250489  Biso 1.000000     C
    N   1.0     0.339041     0.158408     0.752601  Biso 1.000000     N
    N   1.0     0.338854     0.658847     0.750970  Biso 1.000000     N
    N   1.0     0.839227     0.158074     0.752839  Biso 1.000000     N
    N   1.0     0.839046     0.658976     0.750584  Biso 1.000000     N
    N   1.0     0.160835     0.341946     0.247102  Biso 1.000000     N
    N   1.0     0.161009     0.841087     0.249377  Biso 1.000000     N
    N   1.0     0.660711     0.341934     0.247247  Biso 1.000000     N
    N   1.0     0.661039     0.841635     0.248675  Biso 1.000000     N
    O   1.0     0.457303     0.067224     0.567054  Biso 1.000000     O
    O   1.0     0.457425     0.567689     0.564917  Biso 1.000000     O
    O   1.0     0.957346     0.067147     0.566923  Biso 1.000000     O
    O   1.0     0.957490     0.567625     0.564867  Biso 1.000000     O
    O   1.0     0.067562     0.082939     0.512251  Biso 1.000000     O
    O   1.0     0.067556     0.582570     0.509257  Biso 1.000000     O
    O   1.0     0.567616     0.082918     0.512351  Biso 1.000000     O
    O   1.0     0.567541     0.582604     0.509269  Biso 1.000000     O
    O   1.0     0.089957    -0.000324     0.559379  Biso 1.000000     O
    O   1.0     0.089016     0.499932     0.558778  Biso 1.000000     O
    O   1.0     0.589940    -0.000333     0.559573  Biso 1.000000     O
    O   1.0     0.589033     0.499996     0.558825  Biso 1.000000     O
    O   1.0     0.480060     0.485254     0.614148  Biso 1.000000     O
    O   1.0     0.481853     0.985712     0.616891  Biso 1.000000     O
    O   1.0     0.980115     0.485184     0.614112  Biso 1.000000     O
    O   1.0     0.982014     0.985680     0.616813  Biso 1.000000     O
    O   1.0     0.431865     0.043073     0.937784  Biso 1.000000     O
    O   1.0     0.432678     0.544931     0.935903  Biso 1.000000     O
    O   1.0     0.932602     0.042395     0.937228  Biso 1.000000     O
    O   1.0     0.932650     0.544941     0.935839  Biso 1.000000     O
    O   1.0     0.414748     0.434450     0.988185  Biso 1.000000     O
    O   1.0     0.415110     0.932753     0.991070  Biso 1.000000     O
    O   1.0     0.914751     0.434400     0.988129  Biso 1.000000     O
    O   1.0     0.917890     0.932464     0.991183  Biso 1.000000     O
    O   1.0     0.497890     0.410219     0.940766  Biso 1.000000     O
    O   1.0     0.497886     0.909917     0.941444  Biso 1.000000     O
    O   1.0     0.997905     0.410213     0.940705  Biso 1.000000     O
    O   1.0     0.999676     0.910381     0.938470  Biso 1.000000     O
    O   1.0     0.014974     0.019864     0.886114  Biso 1.000000     O
    O   1.0     0.012623     0.517715     0.883327  Biso 1.000000     O
    O   1.0     0.512679     0.017625     0.885634  Biso 1.000000     O
    O   1.0     0.512659     0.517697     0.883357  Biso 1.000000     O
    O   1.0     0.042650     0.432813     0.433071  Biso 1.000000     O
    O   1.0     0.042528     0.932370     0.435110  Biso 1.000000     O
    O   1.0     0.542663     0.432953     0.433118  Biso 1.000000     O
    O   1.0     0.542559     0.932402     0.435161  Biso 1.000000     O
    O   1.0     0.432403     0.416996     0.487755  Biso 1.000000     O
    O   1.0     0.432454     0.917444     0.490748  Biso 1.000000     O
    O   1.0     0.932371     0.417072     0.487706  Biso 1.000000     O
    O   1.0     0.932406     0.917415     0.490675  Biso 1.000000     O
    O   1.0     0.410003     0.500276     0.440691  Biso 1.000000     O
    O   1.0     0.410912     0.000000     0.441320  Biso 1.000000     O
    O   1.0     0.910034     0.500350     0.440573  Biso 1.000000     O
    O   1.0     0.910985     0.000000     0.441202  Biso 1.000000     O
    O   1.0     0.019888     0.014819     0.385889  Biso 1.000000     O
    O   1.0     0.017988     0.514263     0.383161  Biso 1.000000     O
    O   1.0     0.519832     0.014847     0.385992  Biso 1.000000     O
    O   1.0     0.517943     0.514383     0.383194  Biso 1.000000     O
    O   1.0     0.067409     0.457604     0.062745  Biso 1.000000     O
    O   1.0     0.067372     0.955079     0.064144  Biso 1.000000     O
    O   1.0     0.567431     0.457626     0.062798  Biso 1.000000     O
    O   1.0     0.567355     0.957415     0.064843  Biso 1.000000     O
    O   1.0     0.085256     0.065627     0.011846  Biso 1.000000     O
    O   1.0     0.082126     0.567546     0.008826  Biso 1.000000     O
    O   1.0     0.582372     0.067103     0.009478  Biso 1.000000     O
    O   1.0     0.582144     0.567584     0.008877  Biso 1.000000     O
    O   1.0     0.002098     0.089804     0.059269  Biso 1.000000     O
    O   1.0     0.000341     0.589624     0.061549  Biso 1.000000     O
    O   1.0     0.500452     0.089148     0.061879  Biso 1.000000     O
    O   1.0     0.500362     0.589677     0.061586  Biso 1.000000     O
    O   1.0     0.485039     0.480165     0.113910  Biso 1.000000     O
    O   1.0     0.485269     0.980301     0.116389  Biso 1.000000     O
    O   1.0     0.985044     0.480139     0.113874  Biso 1.000000     O
    O   1.0     0.987396     0.982301     0.116660  Biso 1.000000     O
   Cu   1.0     0.488292     0.044424     0.474975  Biso 1.000000    Cu
   Cu   1.0     0.487766     0.544445     0.472697  Biso 1.000000    Cu
   Cu   1.0     0.988323     0.044390     0.474850  Biso 1.000000    Cu
   Cu   1.0     0.987824     0.544406     0.472632  Biso 1.000000    Cu
   Cu   1.0     0.455081     0.011907     0.028695  Biso 1.000000    Cu
   Cu   1.0     0.455086     0.512920     0.026864  Biso 1.000000    Cu
   Cu   1.0     0.957030     0.012142     0.028081  Biso 1.000000    Cu
   Cu   1.0     0.955077     0.512889     0.026798  Biso 1.000000    Cu
   Cu   1.0     0.011650     0.455599     0.525134  Biso 1.000000    Cu
   Cu   1.0     0.012168     0.955574     0.527331  Biso 1.000000    Cu
   Cu   1.0     0.511657     0.455661     0.525196  Biso 1.000000    Cu
   Cu   1.0     0.512181     0.955614     0.527431  Biso 1.000000    Cu
   Cu   1.0     0.042982     0.487872     0.971907  Biso 1.000000    Cu
   Cu   1.0     0.044946     0.987123     0.973191  Biso 1.000000    Cu
   Cu   1.0     0.543006     0.487883     0.971957  Biso 1.000000    Cu
   Cu   1.0     0.543085     0.987330     0.973629  Biso 1.000000    Cu
