#======================================================================

# CRYSTAL DATA

#----------------------------------------------------------------------

data_VESTA_phase_1


_pd_phase_name                         MOF
_cell_length_a                         14.32000
_cell_length_b                         19.75700
_cell_length_c                         19.78900
_cell_angle_alpha                      88.19300
_cell_angle_beta                       79.45200
_cell_angle_gamma                      79.61400
_symmetry_space_group_name_H-M         "P 1"
_symmetry_Int_Tables_number            1

loop_
_symmetry_equiv_pos_as_xyz
   "x, y, z"

loop_
   _atom_site_label
   _atom_site_occupancy
   _atom_site_fract_x
   _atom_site_fract_y
   _atom_site_fract_z
   _atom_site_adp_type
   _atom_site_B_iso_or_equiv
   _atom_site_type_symbol
    H   1.0     0.435029     0.210554     0.429771  Biso 1.000000     H
    H   1.0     0.935387     0.210705     0.429834  Biso 1.000000     H
    H   1.0     0.311204     0.316334     0.440995  Biso 1.000000     H
    H   1.0     0.811439     0.316395     0.440993  Biso 1.000000     H
    H   1.0     0.096441     0.185667     0.499059  Biso 1.000000     H
    H   1.0     0.596910     0.185554     0.499077  Biso 1.000000     H
    H   1.0     0.227894     0.086848     0.485744  Biso 1.000000     H
    H   1.0     0.728480     0.086822     0.485828  Biso 1.000000     H
    H   1.0     0.020532     0.276866     0.560957  Biso 1.000000     H
    H   1.0     0.520749     0.276770     0.560925  Biso 1.000000     H
    H   1.0     0.387251     0.374563     0.573811  Biso 1.000000     H
    H   1.0     0.887055     0.374706     0.573847  Biso 1.000000     H
    H   1.0     0.049889     0.482702     0.415289  Biso 1.000000     H
    H   1.0     0.549984     0.482637     0.415286  Biso 1.000000     H
    H   1.0     0.182053     0.384381     0.400253  Biso 1.000000     H
    H   1.0     0.682195     0.384362     0.400250  Biso 1.000000     H
    H   1.0     0.255151     0.789413     0.570518  Biso 1.000000     H
    H   1.0     0.754813     0.789708     0.570612  Biso 1.000000     H
    H   1.0     0.189889     0.683676     0.558624  Biso 1.000000     H
    H   1.0     0.689819     0.683856     0.558677  Biso 1.000000     H
    H   1.0     0.439182     0.814480     0.500926  Biso 1.000000     H
    H   1.0     0.939389     0.814566     0.500908  Biso 1.000000     H
    H   1.0     0.014761     0.913348     0.514867  Biso 1.000000     H
    H   1.0     0.514269     0.913380     0.514914  Biso 1.000000     H
    H   1.0     0.439917     0.723399     0.438831  Biso 1.000000     H
    H   1.0     0.939928     0.723463     0.438813  Biso 1.000000     H
    H   1.0     0.361951     0.625473     0.425719  Biso 1.000000     H
    H   1.0     0.861888     0.625565     0.425701  Biso 1.000000     H
    H   1.0     0.499273     0.517023     0.583583  Biso 1.000000     H
    H   1.0     0.999161     0.517061     0.583561  Biso 1.000000     H
    H   1.0     0.074569     0.615439     0.598869  Biso 1.000000     H
    H   1.0     0.574560     0.615443     0.598901  Biso 1.000000     H
    H   1.0     0.349892     0.429825     0.790296  Biso 1.000000     H
    H   1.0     0.849703     0.429875     0.790026  Biso 1.000000     H
    H   1.0     0.467665     0.441257     0.684238  Biso 1.000000     H
    H   1.0     0.967732     0.441226     0.684110  Biso 1.000000     H
    H   1.0     0.153821     0.499138     0.814141  Biso 1.000000     H
    H   1.0     0.654085     0.499187     0.813968  Biso 1.000000     H
    H   1.0     0.029164     0.485725     0.913137  Biso 1.000000     H
    H   1.0     0.529644     0.485718     0.913115  Biso 1.000000     H
    H   1.0     0.198485     0.561233     0.723082  Biso 1.000000     H
    H   1.0     0.698352     0.561351     0.723012  Biso 1.000000     H
    H   1.0     0.325225     0.574232     0.625017  Biso 1.000000     H
    H   1.0     0.825097     0.574356     0.624944  Biso 1.000000     H
    H   1.0     0.241458     0.415821     0.516924  Biso 1.000000     H
    H   1.0     0.741386     0.415899     0.516877  Biso 1.000000     H
    H   1.0     0.117076     0.400669     0.615452  Biso 1.000000     H
    H   1.0     0.617042     0.400707     0.615429  Biso 1.000000     H
    H   1.0     0.459740     0.570407     0.210866  Biso 1.000000     H
    H   1.0     0.959372     0.570409     0.211290  Biso 1.000000     H
    H   1.0     0.030577     0.558881     0.316710  Biso 1.000000     H
    H   1.0     0.530597     0.558825     0.316443  Biso 1.000000     H
    H   1.0     0.310323     0.501040     0.185520  Biso 1.000000     H
    H   1.0     0.810598     0.500937     0.185584  Biso 1.000000     H
    H   1.0     0.228076     0.514658     0.087033  Biso 1.000000     H
    H   1.0     0.728657     0.514591     0.086949  Biso 1.000000     H
    H   1.0     0.340848     0.438955     0.276377  Biso 1.000000     H
    H   1.0     0.840765     0.438837     0.276433  Biso 1.000000     H
    H   1.0     0.425140     0.425811     0.374107  Biso 1.000000     H
    H   1.0     0.925028     0.425779     0.374176  Biso 1.000000     H
    H   1.0     0.208361     0.584076     0.482882  Biso 1.000000     H
    H   1.0     0.708302     0.584185     0.482782  Biso 1.000000     H
    H   1.0     0.125566     0.599342     0.384720  Biso 1.000000     H
    H   1.0     0.625540     0.599370     0.384592  Biso 1.000000     H
    H   1.0     0.439803     0.070456     0.290256  Biso 1.000000     H
    H   1.0     0.940029     0.070396     0.290520  Biso 1.000000     H
    H   1.0     0.063534     0.058817     0.184429  Biso 1.000000     H
    H   1.0     0.563478     0.058875     0.184296  Biso 1.000000     H
    H   1.0     0.278792     0.001004     0.314023  Biso 1.000000     H
    H   1.0     0.778345     0.000902     0.314176  Biso 1.000000     H
    H   1.0     0.147628     0.014592     0.413205  Biso 1.000000     H
    H   1.0     0.647003     0.014511     0.413218  Biso 1.000000     H
    H   1.0     0.354005     0.938770     0.223010  Biso 1.000000     H
    H   1.0     0.853896     0.938790     0.223083  Biso 1.000000     H
    H   1.0     0.487272     0.925612     0.124936  Biso 1.000000     H
    H   1.0     0.987185     0.925636     0.125033  Biso 1.000000     H
    H   1.0     0.324661     0.083777     0.017019  Biso 1.000000     H
    H   1.0     0.824609     0.083778     0.017072  Biso 1.000000     H
    H   1.0     0.192706     0.099137     0.115591  Biso 1.000000     H
    H   1.0     0.692639     0.099138     0.115619  Biso 1.000000     H
    H   1.0     0.119891     0.929891     0.710599  Biso 1.000000     H
    H   1.0     0.619637     0.929873     0.710876  Biso 1.000000     H
    H   1.0     0.185028     0.941178     0.816261  Biso 1.000000     H
    H   1.0     0.685055     0.941034     0.816420  Biso 1.000000     H
    H   1.0     0.436418     0.998894     0.685711  Biso 1.000000     H
    H   1.0     0.936062     0.999069     0.685676  Biso 1.000000     H
    H   1.0     0.361222     0.985541     0.586988  Biso 1.000000     H
    H   1.0     0.860611     0.985809     0.587061  Biso 1.000000     H
    H   1.0     0.435547     0.060963     0.776746  Biso 1.000000     H
    H   1.0     0.935439     0.061002     0.776814  Biso 1.000000     H
    H   1.0     0.013246     0.073981     0.874593  Biso 1.000000     H
    H   1.0     0.513320     0.073953     0.874527  Biso 1.000000     H
    H   1.0     0.375628     0.915431     0.982529  Biso 1.000000     H
    H   1.0     0.875660     0.915369     0.982539  Biso 1.000000     H
    H   1.0     0.300394     0.900328     0.884285  Biso 1.000000     H
    H   1.0     0.800438     0.900273     0.884294  Biso 1.000000     H
    H   1.0     0.024362     0.710791     0.070926  Biso 1.000000     H
    H   1.0     0.524610     0.711049     0.070782  Biso 1.000000     H
    H   1.0     0.406580     0.816623     0.058827  Biso 1.000000     H
    H   1.0     0.906567     0.816503     0.058852  Biso 1.000000     H
    H   1.0     0.221775     0.685275     0.000915  Biso 1.000000     H
    H   1.0     0.721444     0.685444     0.000877  Biso 1.000000     H
    H   1.0     0.346368     0.586681     0.014949  Biso 1.000000     H
    H   1.0     0.845806     0.586701     0.015007  Biso 1.000000     H
    H   1.0     0.176735     0.776205     0.938884  Biso 1.000000     H
    H   1.0     0.676752     0.776262     0.938814  Biso 1.000000     H
    H   1.0     0.049860     0.873967     0.925774  Biso 1.000000     H
    H   1.0     0.549861     0.874022     0.925705  Biso 1.000000     H
    H   1.0     0.132665     0.982995     0.083772  Biso 1.000000     H
    H   1.0     0.632651     0.983046     0.083714  Biso 1.000000     H
    H   1.0     0.257164     0.884789     0.099031  Biso 1.000000     H
    H   1.0     0.757133     0.884826     0.099000  Biso 1.000000     H
    H   1.0     0.415546     0.289599     0.929903  Biso 1.000000     H
    H   1.0     0.915171     0.289960     0.929903  Biso 1.000000     H
    H   1.0     0.344613     0.183734     0.941317  Biso 1.000000     H
    H   1.0     0.844531     0.183945     0.941395  Biso 1.000000     H
    H   1.0     0.064554     0.314336     0.999008  Biso 1.000000     H
    H   1.0     0.564235     0.314243     0.999137  Biso 1.000000     H
    H   1.0     0.146602     0.413257     0.985492  Biso 1.000000     H
    H   1.0     0.646001     0.413305     0.985555  Biso 1.000000     H
    H   1.0     0.034121     0.223239     0.061132  Biso 1.000000     H
    H   1.0     0.534132     0.223169     0.061271  Biso 1.000000     H
    H   1.0     0.449652     0.125209     0.074087  Biso 1.000000     H
    H   1.0     0.949608     0.125279     0.074041  Biso 1.000000     H
    H   1.0     0.166625     0.016938     0.915610  Biso 1.000000     H
    H   1.0     0.666615     0.017002     0.915554  Biso 1.000000     H
    H   1.0     0.249589     0.115360     0.900554  Biso 1.000000     H
    H   1.0     0.749557     0.115443     0.900575  Biso 1.000000     H
    C   1.0     0.358736     0.207413     0.444570  Biso 1.000000     C
    C   1.0     0.859118     0.207494     0.444638  Biso 1.000000     C
    C   1.0     0.288572     0.266582     0.450839  Biso 1.000000     C
    C   1.0     0.788876     0.266624     0.450865  Biso 1.000000     C
    C   1.0     0.190518     0.261660     0.471051  Biso 1.000000     C
    C   1.0     0.690837     0.261641     0.471072  Biso 1.000000     C
    C   1.0     0.170022     0.195091     0.483725  Biso 1.000000     C
    C   1.0     0.670465     0.195042     0.483766  Biso 1.000000     C
    C   1.0     0.243865     0.138539     0.476039  Biso 1.000000     C
    C   1.0     0.744384     0.138533     0.476127  Biso 1.000000     C
    C   1.0     0.111872     0.322013     0.479165  Biso 1.000000     C
    C   1.0     0.612097     0.321952     0.479157  Biso 1.000000     C
    C   1.0     0.027003     0.321439     0.527656  Biso 1.000000     C
    C   1.0     0.527207     0.321348     0.527628  Biso 1.000000     C
    C   1.0     0.451134     0.377314     0.535151  Biso 1.000000     C
    C   1.0     0.950939     0.377428     0.535181  Biso 1.000000     C
    C   1.0     0.456595     0.436221     0.494468  Biso 1.000000     C
    C   1.0     0.956446     0.436312     0.494476  Biso 1.000000     C
    C   1.0     0.042088     0.437240     0.446830  Biso 1.000000     C
    C   1.0     0.542202     0.437170     0.446823  Biso 1.000000     C
    C   1.0     0.117951     0.381576     0.438892  Biso 1.000000     C
    C   1.0     0.618101     0.381525     0.438886  Biso 1.000000     C
    C   1.0     0.184842     0.792614     0.555610  Biso 1.000000     C
    C   1.0     0.684519     0.792826     0.555701  Biso 1.000000     C
    C   1.0     0.147423     0.733463     0.548979  Biso 1.000000     C
    C   1.0     0.647249     0.733608     0.549047  Biso 1.000000     C
    C   1.0     0.057194     0.738448     0.528676  Biso 1.000000     C
    C   1.0     0.557046     0.738482     0.528728  Biso 1.000000     C
    C   1.0     0.009909     0.805072     0.516284  Biso 1.000000     C
    C   1.0     0.509646     0.805071     0.516333  Biso 1.000000     C
    C   1.0     0.051610     0.861607     0.524325  Biso 1.000000     C
    C   1.0     0.551195     0.861670     0.524397  Biso 1.000000     C
    C   1.0     0.012809     0.678079     0.520317  Biso 1.000000     C
    C   1.0     0.512776     0.678059     0.520347  Biso 1.000000     C
    C   1.0     0.452014     0.678704     0.471936  Biso 1.000000     C
    C   1.0     0.951991     0.678763     0.471918  Biso 1.000000     C
    C   1.0     0.407800     0.622656     0.464284  Biso 1.000000     C
    C   1.0     0.907739     0.622734     0.464266  Biso 1.000000     C
    C   1.0     0.422325     0.563621     0.504753  Biso 1.000000     C
    C   1.0     0.922232     0.563697     0.504733  Biso 1.000000     C
    C   1.0     0.484533     0.562599     0.552243  Biso 1.000000     C
    C   1.0     0.984445     0.562644     0.552224  Biso 1.000000     C
    C   1.0     0.028489     0.618344     0.560306  Biso 1.000000     C
    C   1.0     0.528495     0.618326     0.560332  Biso 1.000000     C
    C   1.0     0.418826     0.444657     0.793157  Biso 1.000000     C
    C   1.0     0.918616     0.444686     0.792994  Biso 1.000000     C
    C   1.0     0.485600     0.451037     0.733837  Biso 1.000000     C
    C   1.0     0.985539     0.451028     0.733745  Biso 1.000000     C
    C   1.0     0.073554     0.471249     0.738434  Biso 1.000000     C
    C   1.0     0.573597     0.471288     0.738420  Biso 1.000000     C
    C   1.0     0.087845     0.483837     0.804890  Biso 1.000000     C
    C   1.0     0.588078     0.483856     0.804828  Biso 1.000000     C
    C   1.0     0.017928     0.476085     0.861542  Biso 1.000000     C
    C   1.0     0.518304     0.476073     0.861551  Biso 1.000000     C
    C   1.0     0.147979     0.479458     0.677935  Biso 1.000000     C
    C   1.0     0.647921     0.479531     0.677882  Biso 1.000000     C
    C   1.0     0.208567     0.527974     0.678439  Biso 1.000000     C
    C   1.0     0.708453     0.528085     0.678374  Biso 1.000000     C
    C   1.0     0.280705     0.535549     0.622321  Biso 1.000000     C
    C   1.0     0.780581     0.535669     0.622259  Biso 1.000000     C
    C   1.0     0.295494     0.494884     0.563353  Biso 1.000000     C
    C   1.0     0.795365     0.494992     0.563305  Biso 1.000000     C
    C   1.0     0.233631     0.447295     0.562451  Biso 1.000000     C
    C   1.0     0.733534     0.447383     0.562401  Biso 1.000000     C
    C   1.0     0.161858     0.439304     0.618249  Biso 1.000000     C
    C   1.0     0.661792     0.439368     0.618206  Biso 1.000000     C
    C   1.0     0.037249     0.555571     0.207928  Biso 1.000000     C
    C   1.0     0.537565     0.555558     0.207621  Biso 1.000000     C
    C   1.0     0.077959     0.549130     0.266908  Biso 1.000000     C
    C   1.0     0.578093     0.549090     0.266682  Biso 1.000000     C
    C   1.0     0.178440     0.528879     0.261752  Biso 1.000000     C
    C   1.0     0.678551     0.528825     0.261652  Biso 1.000000     C
    C   1.0     0.232058     0.516374     0.195132  Biso 1.000000     C
    C   1.0     0.732341     0.516308     0.195084  Biso 1.000000     C
    C   1.0     0.186373     0.524225     0.138765  Biso 1.000000     C
    C   1.0     0.686830     0.524187     0.138637  Biso 1.000000     C
    C   1.0     0.226937     0.520609     0.321949  Biso 1.000000     C
    C   1.0     0.726920     0.520574     0.321907  Biso 1.000000     C
    C   1.0     0.312029     0.472124     0.321115  Biso 1.000000     C
    C   1.0     0.811962     0.472058     0.321133  Biso 1.000000     C
    C   1.0     0.359944     0.464468     0.377035  Biso 1.000000     C
    C   1.0     0.859857     0.464451     0.377058  Biso 1.000000     C
    C   1.0     0.324943     0.505035     0.436097  Biso 1.000000     C
    C   1.0     0.824864     0.505096     0.436065  Biso 1.000000     C
    C   1.0     0.238923     0.552649     0.437284  Biso 1.000000     C
    C   1.0     0.738864     0.552719     0.437210  Biso 1.000000     C
    C   1.0     0.191016     0.560711     0.381700  Biso 1.000000     C
    C   1.0     0.690979     0.560734     0.381615  Biso 1.000000     C
    C   1.0     0.016382     0.055558     0.293345  Biso 1.000000     C
    C   1.0     0.516086     0.055573     0.293180  Biso 1.000000     C
    C   1.0     0.086339     0.049093     0.234005  Biso 1.000000     C
    C   1.0     0.586161     0.049106     0.233906  Biso 1.000000     C
    C   1.0     0.184419     0.028829     0.238536  Biso 1.000000     C
    C   1.0     0.684202     0.028804     0.238543  Biso 1.000000     C
    C   1.0     0.205154     0.016337     0.304917  Biso 1.000000     C
    C   1.0     0.704757     0.016260     0.304968  Biso 1.000000     C
    C   1.0     0.131498     0.024197     0.361661  Biso 1.000000     C
    C   1.0     0.630983     0.024127     0.361645  Biso 1.000000     C
    C   1.0     0.262851     0.020479     0.177974  Biso 1.000000     C
    C   1.0     0.762727     0.020480     0.178028  Biso 1.000000     C
    C   1.0     0.347560     0.971950     0.178410  Biso 1.000000     C
    C   1.0     0.847452     0.971968     0.178481  Biso 1.000000     C
    C   1.0     0.423487     0.964277     0.122287  Biso 1.000000     C
    C   1.0     0.923402     0.964298     0.122367  Biso 1.000000     C
    C   1.0     0.418049     0.004839     0.063381  Biso 1.000000     C
    C   1.0     0.917991     0.004844     0.063444  Biso 1.000000     C
    C   1.0     0.332483     0.052401     0.062519  Biso 1.000000     C
    C   1.0     0.832425     0.052406     0.062575  Biso 1.000000     C
    C   1.0     0.256722     0.060507     0.118334  Biso 1.000000     C
    C   1.0     0.756648     0.060510     0.118382  Biso 1.000000     C
    C   1.0     0.190381     0.944625     0.707444  Biso 1.000000     C
    C   1.0     0.690108     0.944659     0.707642  Biso 1.000000     C
    C   1.0     0.227714     0.950928     0.766549  Biso 1.000000     C
    C   1.0     0.727606     0.950887     0.766689  Biso 1.000000     C
    C   1.0     0.318157     0.971056     0.761625  Biso 1.000000     C
    C   1.0     0.818017     0.971083     0.761691  Biso 1.000000     C
    C   1.0     0.365761     0.983615     0.695122  Biso 1.000000     C
    C   1.0     0.865422     0.983759     0.695161  Biso 1.000000     C
    C   1.0     0.324150     0.975903     0.638627  Biso 1.000000     C
    C   1.0     0.823653     0.976115     0.638721  Biso 1.000000     C
    C   1.0     0.362450     0.979196     0.821912  Biso 1.000000     C
    C   1.0     0.862407     0.979188     0.821945  Biso 1.000000     C
    C   1.0     0.423334     0.027697     0.821313  Biso 1.000000     C
    C   1.0     0.923256     0.027710     0.821366  Biso 1.000000     C
    C   1.0     0.467449     0.035264     0.877259  Biso 1.000000     C
    C   1.0     0.967374     0.035272     0.877315  Biso 1.000000     C
    C   1.0     0.452723     0.994590     0.936118  Biso 1.000000     C
    C   1.0     0.952690     0.994574     0.936164  Biso 1.000000     C
    C   1.0     0.390495     0.946937     0.937078  Biso 1.000000     C
    C   1.0     0.890502     0.946897     0.937102  Biso 1.000000     C
    C   1.0     0.346574     0.938970     0.881457  Biso 1.000000     C
    C   1.0     0.846589     0.938932     0.881475  Biso 1.000000     C
    C   1.0     0.455972     0.707700     0.055822  Biso 1.000000     C
    C   1.0     0.955679     0.707543     0.055932  Biso 1.000000     C
    C   1.0     0.389032     0.766768     0.049146  Biso 1.000000     C
    C   1.0     0.888896     0.766682     0.049194  Biso 1.000000     C
    C   1.0     0.301371     0.761618     0.028780  Biso 1.000000     C
    C   1.0     0.801238     0.761634     0.028775  Biso 1.000000     C
    C   1.0     0.287444     0.694916     0.016345  Biso 1.000000     C
    C   1.0     0.787130     0.694977     0.016357  Biso 1.000000     C
    C   1.0     0.357344     0.638476     0.024434  Biso 1.000000     C
    C   1.0     0.856876     0.638468     0.024503  Biso 1.000000     C
    C   1.0     0.226834     0.821884     0.020418  Biso 1.000000     C
    C   1.0     0.726804     0.821938     0.020372  Biso 1.000000     C
    C   1.0     0.166448     0.821006     0.972001  Biso 1.000000     C
    C   1.0     0.666453     0.821063     0.971933  Biso 1.000000     C
    C   1.0     0.094233     0.876956     0.964358  Biso 1.000000     C
    C   1.0     0.594243     0.877006     0.964284  Biso 1.000000     C
    C   1.0     0.079199     0.936103     0.004860  Biso 1.000000     C
    C   1.0     0.579216     0.936142     0.004794  Biso 1.000000     C
    C   1.0     0.140785     0.937333     0.052390  Biso 1.000000     C
    C   1.0     0.640790     0.937384     0.052330  Biso 1.000000     C
    C   1.0     0.212603     0.881726     0.060450  Biso 1.000000     C
    C   1.0     0.712589     0.881774     0.060406  Biso 1.000000     C
    C   1.0     0.337690     0.292707     0.944677  Biso 1.000000     C
    C   1.0     0.837336     0.292956     0.944694  Biso 1.000000     C
    C   1.0     0.297111     0.233484     0.951047  Biso 1.000000     C
    C   1.0     0.796927     0.233658     0.951109  Biso 1.000000     C
    C   1.0     0.196603     0.238354     0.971217  Biso 1.000000     C
    C   1.0     0.696437     0.238416     0.971296  Biso 1.000000     C
    C   1.0     0.142844     0.304941     0.983726  Biso 1.000000     C
    C   1.0     0.642517     0.304954     0.983816  Biso 1.000000     C
    C   1.0     0.188414     0.361550     0.975938  Biso 1.000000     C
    C   1.0     0.687924     0.361637     0.975980  Biso 1.000000     C
    C   1.0     0.148144     0.177928     0.979400  Biso 1.000000     C
    C   1.0     0.648100     0.177938     0.979473  Biso 1.000000     C
    C   1.0     0.062947     0.178557     0.027867  Biso 1.000000     C
    C   1.0     0.562941     0.178519     0.027960  Biso 1.000000     C
    C   1.0     0.014927     0.122498     0.035399  Biso 1.000000     C
    C   1.0     0.514925     0.122464     0.035441  Biso 1.000000     C
    C   1.0     0.049910     0.063484     0.994727  Biso 1.000000     C
    C   1.0     0.549904     0.063498     0.994702  Biso 1.000000     C
    C   1.0     0.136047     0.062492     0.947130  Biso 1.000000     C
    C   1.0     0.636036     0.062534     0.947107  Biso 1.000000     C
    C   1.0     0.184061     0.118221     0.939183  Biso 1.000000     C
    C   1.0     0.684035     0.118268     0.939205  Biso 1.000000     C
    C   1.0     0.374829     0.499919     0.499647  Biso 1.000000     C
    C   1.0     0.874715     0.500013     0.499621  Biso 1.000000     C
    C   1.0    -0.000042    -0.000262    -0.000223  Biso 1.000000     C
    C   1.0     0.499965    -0.000245    -0.000281  Biso 1.000000     C
    N   1.0     0.338122     0.143234     0.456439  Biso 1.000000     N
    N   1.0     0.838630     0.143284     0.456553  Biso 1.000000     N
    N   1.0     0.138236     0.856847     0.544022  Biso 1.000000     N
    N   1.0     0.637773     0.857024     0.544136  Biso 1.000000     N
    N   1.0     0.433809     0.456425     0.857168  Biso 1.000000     N
    N   1.0     0.933399     0.456487     0.857051  Biso 1.000000     N
    N   1.0     0.089788     0.543866     0.143689  Biso 1.000000     N
    N   1.0     0.590281     0.543883     0.143435  Biso 1.000000     N
    N   1.0     0.037219     0.043844     0.357328  Biso 1.000000     N
    N   1.0     0.536743     0.043817     0.357206  Biso 1.000000     N
    N   1.0     0.237333     0.956345     0.643323  Biso 1.000000     N
    N   1.0     0.736842     0.956517     0.643492  Biso 1.000000     N
    N   1.0     0.441498     0.643385     0.044224  Biso 1.000000     N
    N   1.0     0.941013     0.643271     0.044367  Biso 1.000000     N
    N   1.0     0.285018     0.356901     0.956405  Biso 1.000000     N
    N   1.0     0.784492     0.357098     0.956381  Biso 1.000000     N
   Cu   1.0     0.437168     0.056911     0.443470  Biso 1.000000    Cu
   Cu   1.0     0.938040     0.056991     0.443710  Biso 1.000000    Cu
   Cu   1.0     0.188386     0.942991     0.557036  Biso 1.000000    Cu
   Cu   1.0     0.687301     0.943374     0.557340  Biso 1.000000    Cu
   Cu   1.0     0.341289     0.443228     0.943500  Biso 1.000000    Cu
   Cu   1.0     0.840276     0.443572     0.943272  Biso 1.000000    Cu
   Cu   1.0     0.033384     0.556997     0.057707  Biso 1.000000    Cu
   Cu   1.0     0.534440     0.557211     0.057268  Biso 1.000000    Cu
    I   1.0     0.337699     0.949990     0.450165  Biso 1.000000     I
    I   1.0     0.837509     0.950249     0.450462  Biso 1.000000     I
    I   1.0     0.037938     0.049828     0.550206  Biso 1.000000     I
    I   1.0     0.537497     0.050129     0.549969  Biso 1.000000     I
    I   1.0     0.437560     0.450311     0.050067  Biso 1.000000     I
    I   1.0     0.937334     0.450064     0.049823  Biso 1.000000     I
    I   1.0     0.187328     0.549839     0.950657  Biso 1.000000     I
    I   1.0     0.687351     0.550181     0.950266  Biso 1.000000     I
