data_BUFPAU_charged
_audit_creation_date              2014-07-02
_audit_creation_method            'Materials Studio'
_symmetry_space_group_name_H-M    'P1'
_symmetry_Int_Tables_number       1
_symmetry_cell_setting            triclinic
loop_
_symmetry_equiv_pos_as_xyz
  x,y,z
_cell_length_a                    34.6108
_cell_length_b                    34.6108
_cell_length_c                    34.6108
_cell_angle_alpha                 60.0000
_cell_angle_beta                  60.0000
_cell_angle_gamma                 60.0000
loop_
_atom_site_label
_atom_site_type_symbol
_atom_site_fract_x
_atom_site_fract_y
_atom_site_fract_z
_atom_site_U_iso_or_equiv
_atom_site_adp_type
_atom_site_occupancy
H1     H     0.06410   0.53650   0.06490   0.01267  Uiso   1.00
H2     H     0.21090   0.55350   0.00930   0.01267  Uiso   1.00
H3     H     0.18650   0.54910   0.96050   0.01267  Uiso   1.00
H4     H     0.01390   0.59150   0.16350   0.01267  Uiso   1.00
H5     H     0.01460   0.58820   0.11880   0.01267  Uiso   1.00
H6     H     0.06410   0.64290   0.10950   0.01267  Uiso   1.00
H7     H     0.01560   0.66700   0.09860   0.01267  Uiso   1.00
H8     H     0.06320   0.64040   0.06500   0.01267  Uiso   1.00
H9     H     0.04830   0.49690   0.19810   0.01267  Uiso   1.00
H10    H     0.04870   0.49390   0.15330   0.01267  Uiso   1.00
H11    H     0.12990   0.45850   0.13370   0.01267  Uiso   1.00
H12    H     0.10040   0.42800   0.18200   0.01267  Uiso   1.00
H13    H     0.12460   0.45620   0.18340   0.01267  Uiso   1.00
H14    H     0.53650   0.06410   0.33450   0.01267  Uiso   1.00
H15    H     0.55350   0.21090   0.22630   0.01267  Uiso   1.00
H16    H     0.54910   0.18650   0.30390   0.01267  Uiso   1.00
H17    H     0.59150   0.01390   0.23110   0.01267  Uiso   1.00
H18    H     0.58820   0.01460   0.27840   0.01267  Uiso   1.00
H19    H     0.64290   0.06410   0.18350   0.01267  Uiso   1.00
H20    H     0.66700   0.01560   0.21880   0.01267  Uiso   1.00
H21    H     0.64040   0.06320   0.23140   0.01267  Uiso   1.00
H22    H     0.49690   0.04830   0.25670   0.01267  Uiso   1.00
H23    H     0.49390   0.04870   0.30410   0.01267  Uiso   1.00
H24    H     0.45850   0.12990   0.27790   0.01267  Uiso   1.00
H25    H     0.42800   0.10040   0.28960   0.01267  Uiso   1.00
H26    H     0.45620   0.12460   0.23580   0.01267  Uiso   1.00
H27    H     0.06490   0.33450   0.06410   0.01267  Uiso   1.00
H28    H     0.00930   0.22630   0.21090   0.01267  Uiso   1.00
H29    H     0.96050   0.30390   0.18650   0.01267  Uiso   1.00
H30    H     0.16350   0.23110   0.01390   0.01267  Uiso   1.00
H31    H     0.11880   0.27840   0.01460   0.01267  Uiso   1.00
H32    H     0.10950   0.18350   0.06410   0.01267  Uiso   1.00
H33    H     0.09860   0.21880   0.01560   0.01267  Uiso   1.00
H34    H     0.06500   0.23140   0.06320   0.01267  Uiso   1.00
H35    H     0.19810   0.25670   0.04830   0.01267  Uiso   1.00
H36    H     0.15330   0.30410   0.04870   0.01267  Uiso   1.00
H37    H     0.13370   0.27790   0.12990   0.01267  Uiso   1.00
H38    H     0.18200   0.28960   0.10040   0.01267  Uiso   1.00
H39    H     0.18340   0.23580   0.12460   0.01267  Uiso   1.00
H40    H     0.33450   0.06490   0.53650   0.01267  Uiso   1.00
H41    H     0.22630   0.00930   0.55350   0.01267  Uiso   1.00
H42    H     0.30390   0.96050   0.54910   0.01267  Uiso   1.00
H43    H     0.23110   0.16350   0.59150   0.01267  Uiso   1.00
H44    H     0.27840   0.11880   0.58820   0.01267  Uiso   1.00
H45    H     0.18350   0.10950   0.64290   0.01267  Uiso   1.00
H46    H     0.21880   0.09860   0.66700   0.01267  Uiso   1.00
H47    H     0.23140   0.06500   0.64040   0.01267  Uiso   1.00
H48    H     0.25670   0.19810   0.49690   0.01267  Uiso   1.00
H49    H     0.30410   0.15330   0.49390   0.01267  Uiso   1.00
H50    H     0.27790   0.13370   0.45850   0.01267  Uiso   1.00
H51    H     0.28960   0.18200   0.42800   0.01267  Uiso   1.00
H52    H     0.23580   0.18340   0.45620   0.01267  Uiso   1.00
H53    H     0.06410   0.06490   0.33450   0.01267  Uiso   1.00
H54    H     0.21090   0.00930   0.22630   0.01267  Uiso   1.00
H55    H     0.18650   0.96050   0.30390   0.01267  Uiso   1.00
H56    H     0.01390   0.16350   0.23110   0.01267  Uiso   1.00
H57    H     0.01460   0.11880   0.27840   0.01267  Uiso   1.00
H58    H     0.06410   0.10950   0.18350   0.01267  Uiso   1.00
H59    H     0.01560   0.09860   0.21880   0.01267  Uiso   1.00
H60    H     0.06320   0.06500   0.23140   0.01267  Uiso   1.00
H61    H     0.04830   0.19810   0.25670   0.01267  Uiso   1.00
H62    H     0.04870   0.15330   0.30410   0.01267  Uiso   1.00
H63    H     0.12990   0.13370   0.27790   0.01267  Uiso   1.00
H64    H     0.10040   0.18200   0.28960   0.01267  Uiso   1.00
H65    H     0.12460   0.18340   0.23580   0.01267  Uiso   1.00
H66    H     0.53650   0.33450   0.06490   0.01267  Uiso   1.00
H67    H     0.55350   0.22630   0.00930   0.01267  Uiso   1.00
H68    H     0.54910   0.30390   0.96050   0.01267  Uiso   1.00
H69    H     0.59150   0.23110   0.16350   0.01267  Uiso   1.00
H70    H     0.58820   0.27840   0.11880   0.01267  Uiso   1.00
H71    H     0.64290   0.18350   0.10950   0.01267  Uiso   1.00
H72    H     0.66700   0.21880   0.09860   0.01267  Uiso   1.00
H73    H     0.64040   0.23140   0.06500   0.01267  Uiso   1.00
H74    H     0.49690   0.25670   0.19810   0.01267  Uiso   1.00
H75    H     0.49390   0.30410   0.15330   0.01267  Uiso   1.00
H76    H     0.45850   0.27790   0.13370   0.01267  Uiso   1.00
H77    H     0.42800   0.28960   0.18200   0.01267  Uiso   1.00
H78    H     0.45620   0.23580   0.18340   0.01267  Uiso   1.00
H79    H     0.06490   0.06410   0.53650   0.01267  Uiso   1.00
H80    H     0.00930   0.21090   0.55350   0.01267  Uiso   1.00
H81    H     0.96050   0.18650   0.54910   0.01267  Uiso   1.00
H82    H     0.16350   0.01390   0.59150   0.01267  Uiso   1.00
H83    H     0.11880   0.01460   0.58820   0.01267  Uiso   1.00
H84    H     0.10950   0.06410   0.64290   0.01267  Uiso   1.00
H85    H     0.09860   0.01560   0.66700   0.01267  Uiso   1.00
H86    H     0.06500   0.06320   0.64040   0.01267  Uiso   1.00
H87    H     0.19810   0.04830   0.49690   0.01267  Uiso   1.00
H88    H     0.15330   0.04870   0.49390   0.01267  Uiso   1.00
H89    H     0.13370   0.12990   0.45850   0.01267  Uiso   1.00
H90    H     0.18200   0.10040   0.42800   0.01267  Uiso   1.00
H91    H     0.18340   0.12460   0.45620   0.01267  Uiso   1.00
H92    H     0.33450   0.53650   0.06410   0.01267  Uiso   1.00
H93    H     0.22630   0.55350   0.21090   0.01267  Uiso   1.00
H94    H     0.30390   0.54910   0.18650   0.01267  Uiso   1.00
H95    H     0.23110   0.59150   0.01390   0.01267  Uiso   1.00
H96    H     0.27840   0.58820   0.01460   0.01267  Uiso   1.00
H97    H     0.18350   0.64290   0.06410   0.01267  Uiso   1.00
H98    H     0.21880   0.66700   0.01560   0.01267  Uiso   1.00
H99    H     0.23140   0.64040   0.06320   0.01267  Uiso   1.00
H100   H     0.25670   0.49690   0.04830   0.01267  Uiso   1.00
H101   H     0.30410   0.49390   0.04870   0.01267  Uiso   1.00
H102   H     0.27790   0.45850   0.12990   0.01267  Uiso   1.00
H103   H     0.28960   0.42800   0.10040   0.01267  Uiso   1.00
H104   H     0.23580   0.45620   0.12460   0.01267  Uiso   1.00
H105   H     0.06410   0.33450   0.53650   0.01267  Uiso   1.00
H106   H     0.21090   0.22630   0.55350   0.01267  Uiso   1.00
H107   H     0.18650   0.30390   0.54910   0.01267  Uiso   1.00
H108   H     0.01390   0.23110   0.59150   0.01267  Uiso   1.00
H109   H     0.01460   0.27840   0.58820   0.01267  Uiso   1.00
H110   H     0.06410   0.18350   0.64290   0.01267  Uiso   1.00
H111   H     0.01560   0.21880   0.66700   0.01267  Uiso   1.00
H112   H     0.06320   0.23140   0.64040   0.01267  Uiso   1.00
H113   H     0.04830   0.25670   0.49690   0.01267  Uiso   1.00
H114   H     0.04870   0.30410   0.49390   0.01267  Uiso   1.00
H115   H     0.12990   0.27790   0.45850   0.01267  Uiso   1.00
H116   H     0.10040   0.28960   0.42800   0.01267  Uiso   1.00
H117   H     0.12460   0.23580   0.45620   0.01267  Uiso   1.00
H118   H     0.53650   0.06490   0.06410   0.01267  Uiso   1.00
H119   H     0.55350   0.00930   0.21090   0.01267  Uiso   1.00
H120   H     0.54910   0.96050   0.18650   0.01267  Uiso   1.00
H121   H     0.59150   0.16350   0.01390   0.01267  Uiso   1.00
H122   H     0.58820   0.11880   0.01460   0.01267  Uiso   1.00
H123   H     0.64290   0.10950   0.06410   0.01267  Uiso   1.00
H124   H     0.66700   0.09860   0.01560   0.01267  Uiso   1.00
H125   H     0.64040   0.06500   0.06320   0.01267  Uiso   1.00
H126   H     0.49690   0.19810   0.04830   0.01267  Uiso   1.00
H127   H     0.49390   0.15330   0.04870   0.01267  Uiso   1.00
H128   H     0.45850   0.13370   0.12990   0.01267  Uiso   1.00
H129   H     0.42800   0.18200   0.10040   0.01267  Uiso   1.00
H130   H     0.45620   0.18340   0.12460   0.01267  Uiso   1.00
H131   H     0.06490   0.53650   0.33450   0.01267  Uiso   1.00
H132   H     0.00930   0.55350   0.22630   0.01267  Uiso   1.00
H133   H     0.96050   0.54910   0.30390   0.01267  Uiso   1.00
H134   H     0.16350   0.59150   0.23110   0.01267  Uiso   1.00
H135   H     0.11880   0.58820   0.27840   0.01267  Uiso   1.00
H136   H     0.10950   0.64290   0.18350   0.01267  Uiso   1.00
H137   H     0.09860   0.66700   0.21880   0.01267  Uiso   1.00
H138   H     0.06500   0.64040   0.23140   0.01267  Uiso   1.00
H139   H     0.19810   0.49690   0.25670   0.01267  Uiso   1.00
H140   H     0.15330   0.49390   0.30410   0.01267  Uiso   1.00
H141   H     0.13370   0.45850   0.27790   0.01267  Uiso   1.00
H142   H     0.18200   0.42800   0.28960   0.01267  Uiso   1.00
H143   H     0.18340   0.45620   0.23580   0.01267  Uiso   1.00
H144   H     0.33450   0.06410   0.06490   0.01267  Uiso   1.00
H145   H     0.22630   0.21090   0.00930   0.01267  Uiso   1.00
H146   H     0.30390   0.18650   0.96050   0.01267  Uiso   1.00
H147   H     0.23110   0.01390   0.16350   0.01267  Uiso   1.00
H148   H     0.27840   0.01460   0.11880   0.01267  Uiso   1.00
H149   H     0.18350   0.06410   0.10950   0.01267  Uiso   1.00
H150   H     0.21880   0.01560   0.09860   0.01267  Uiso   1.00
H151   H     0.23140   0.06320   0.06500   0.01267  Uiso   1.00
H152   H     0.25670   0.04830   0.19810   0.01267  Uiso   1.00
H153   H     0.30410   0.04870   0.15330   0.01267  Uiso   1.00
H154   H     0.27790   0.12990   0.13370   0.01267  Uiso   1.00
H155   H     0.28960   0.10040   0.18200   0.01267  Uiso   1.00
H156   H     0.23580   0.12460   0.18340   0.01267  Uiso   1.00
H157   H     0.93590   0.46350   0.93510   0.01267  Uiso   1.00
H158   H     0.78910   0.44650   0.99070   0.01267  Uiso   1.00
H159   H     0.81350   0.45090   0.03950   0.01267  Uiso   1.00
H160   H     0.98610   0.40850   0.83650   0.01267  Uiso   1.00
H161   H     0.98540   0.41180   0.88120   0.01267  Uiso   1.00
H162   H     0.93590   0.35710   0.89050   0.01267  Uiso   1.00
H163   H     0.98440   0.33300   0.90140   0.01267  Uiso   1.00
H164   H     0.93680   0.35960   0.93500   0.01267  Uiso   1.00
H165   H     0.95170   0.50310   0.80190   0.01267  Uiso   1.00
H166   H     0.95130   0.50610   0.84670   0.01267  Uiso   1.00
H167   H     0.87010   0.54150   0.86630   0.01267  Uiso   1.00
H168   H     0.89960   0.57200   0.81800   0.01267  Uiso   1.00
H169   H     0.87540   0.54380   0.81660   0.01267  Uiso   1.00
H170   H     0.46350   0.93590   0.66550   0.01267  Uiso   1.00
H171   H     0.44650   0.78910   0.77370   0.01267  Uiso   1.00
H172   H     0.45090   0.81350   0.69610   0.01267  Uiso   1.00
H173   H     0.40850   0.98610   0.76890   0.01267  Uiso   1.00
H174   H     0.41180   0.98540   0.72160   0.01267  Uiso   1.00
H175   H     0.35710   0.93590   0.81650   0.01267  Uiso   1.00
H176   H     0.33300   0.98440   0.78120   0.01267  Uiso   1.00
H177   H     0.35960   0.93680   0.76860   0.01267  Uiso   1.00
H178   H     0.50310   0.95170   0.74330   0.01267  Uiso   1.00
H179   H     0.50610   0.95130   0.69590   0.01267  Uiso   1.00
H180   H     0.54150   0.87010   0.72210   0.01267  Uiso   1.00
H181   H     0.57200   0.89960   0.71040   0.01267  Uiso   1.00
H182   H     0.54380   0.87540   0.76420   0.01267  Uiso   1.00
H183   H     0.93510   0.66550   0.93590   0.01267  Uiso   1.00
H184   H     0.99070   0.77370   0.78910   0.01267  Uiso   1.00
H185   H     0.03950   0.69610   0.81350   0.01267  Uiso   1.00
H186   H     0.83650   0.76890   0.98610   0.01267  Uiso   1.00
H187   H     0.88120   0.72160   0.98540   0.01267  Uiso   1.00
H188   H     0.89050   0.81650   0.93590   0.01267  Uiso   1.00
H189   H     0.90140   0.78120   0.98440   0.01267  Uiso   1.00
H190   H     0.93500   0.76860   0.93680   0.01267  Uiso   1.00
H191   H     0.80190   0.74330   0.95170   0.01267  Uiso   1.00
H192   H     0.84670   0.69590   0.95130   0.01267  Uiso   1.00
H193   H     0.86630   0.72210   0.87010   0.01267  Uiso   1.00
H194   H     0.81800   0.71040   0.89960   0.01267  Uiso   1.00
H195   H     0.81660   0.76420   0.87540   0.01267  Uiso   1.00
H196   H     0.66550   0.93510   0.46350   0.01267  Uiso   1.00
H197   H     0.77370   0.99070   0.44650   0.01267  Uiso   1.00
H198   H     0.69610   0.03950   0.45090   0.01267  Uiso   1.00
H199   H     0.76890   0.83650   0.40850   0.01267  Uiso   1.00
H200   H     0.72160   0.88120   0.41180   0.01267  Uiso   1.00
H201   H     0.81650   0.89050   0.35710   0.01267  Uiso   1.00
H202   H     0.78120   0.90140   0.33300   0.01267  Uiso   1.00
H203   H     0.76860   0.93500   0.35960   0.01267  Uiso   1.00
H204   H     0.74330   0.80190   0.50310   0.01267  Uiso   1.00
H205   H     0.69590   0.84670   0.50610   0.01267  Uiso   1.00
H206   H     0.72210   0.86630   0.54150   0.01267  Uiso   1.00
H207   H     0.71040   0.81800   0.57200   0.01267  Uiso   1.00
H208   H     0.76420   0.81660   0.54380   0.01267  Uiso   1.00
H209   H     0.93590   0.93510   0.66550   0.01267  Uiso   1.00
H210   H     0.78910   0.99070   0.77370   0.01267  Uiso   1.00
H211   H     0.81350   0.03950   0.69610   0.01267  Uiso   1.00
H212   H     0.98610   0.83650   0.76890   0.01267  Uiso   1.00
H213   H     0.98540   0.88120   0.72160   0.01267  Uiso   1.00
H214   H     0.93590   0.89050   0.81650   0.01267  Uiso   1.00
H215   H     0.98440   0.90140   0.78120   0.01267  Uiso   1.00
H216   H     0.93680   0.93500   0.76860   0.01267  Uiso   1.00
H217   H     0.95170   0.80190   0.74330   0.01267  Uiso   1.00
H218   H     0.95130   0.84670   0.69590   0.01267  Uiso   1.00
H219   H     0.87010   0.86630   0.72210   0.01267  Uiso   1.00
H220   H     0.89960   0.81800   0.71040   0.01267  Uiso   1.00
H221   H     0.87540   0.81660   0.76420   0.01267  Uiso   1.00
H222   H     0.46350   0.66550   0.93510   0.01267  Uiso   1.00
H223   H     0.44650   0.77370   0.99070   0.01267  Uiso   1.00
H224   H     0.45090   0.69610   0.03950   0.01267  Uiso   1.00
H225   H     0.40850   0.76890   0.83650   0.01267  Uiso   1.00
H226   H     0.41180   0.72160   0.88120   0.01267  Uiso   1.00
H227   H     0.35710   0.81650   0.89050   0.01267  Uiso   1.00
H228   H     0.33300   0.78120   0.90140   0.01267  Uiso   1.00
H229   H     0.35960   0.76860   0.93500   0.01267  Uiso   1.00
H230   H     0.50310   0.74330   0.80190   0.01267  Uiso   1.00
H231   H     0.50610   0.69590   0.84670   0.01267  Uiso   1.00
H232   H     0.54150   0.72210   0.86630   0.01267  Uiso   1.00
H233   H     0.57200   0.71040   0.81800   0.01267  Uiso   1.00
H234   H     0.54380   0.76420   0.81660   0.01267  Uiso   1.00
H235   H     0.93510   0.93590   0.46350   0.01267  Uiso   1.00
H236   H     0.99070   0.78910   0.44650   0.01267  Uiso   1.00
H237   H     0.03950   0.81350   0.45090   0.01267  Uiso   1.00
H238   H     0.83650   0.98610   0.40850   0.01267  Uiso   1.00
H239   H     0.88120   0.98540   0.41180   0.01267  Uiso   1.00
H240   H     0.89050   0.93590   0.35710   0.01267  Uiso   1.00
H241   H     0.90140   0.98440   0.33300   0.01267  Uiso   1.00
H242   H     0.93500   0.93680   0.35960   0.01267  Uiso   1.00
H243   H     0.80190   0.95170   0.50310   0.01267  Uiso   1.00
H244   H     0.84670   0.95130   0.50610   0.01267  Uiso   1.00
H245   H     0.86630   0.87010   0.54150   0.01267  Uiso   1.00
H246   H     0.81800   0.89960   0.57200   0.01267  Uiso   1.00
H247   H     0.81660   0.87540   0.54380   0.01267  Uiso   1.00
H248   H     0.66550   0.46350   0.93590   0.01267  Uiso   1.00
H249   H     0.77370   0.44650   0.78910   0.01267  Uiso   1.00
H250   H     0.69610   0.45090   0.81350   0.01267  Uiso   1.00
H251   H     0.76890   0.40850   0.98610   0.01267  Uiso   1.00
H252   H     0.72160   0.41180   0.98540   0.01267  Uiso   1.00
H253   H     0.81650   0.35710   0.93590   0.01267  Uiso   1.00
H254   H     0.78120   0.33300   0.98440   0.01267  Uiso   1.00
H255   H     0.76860   0.35960   0.93680   0.01267  Uiso   1.00
H256   H     0.74330   0.50310   0.95170   0.01267  Uiso   1.00
H257   H     0.69590   0.50610   0.95130   0.01267  Uiso   1.00
H258   H     0.72210   0.54150   0.87010   0.01267  Uiso   1.00
H259   H     0.71040   0.57200   0.89960   0.01267  Uiso   1.00
H260   H     0.76420   0.54380   0.87540   0.01267  Uiso   1.00
H261   H     0.93590   0.66550   0.46350   0.01267  Uiso   1.00
H262   H     0.78910   0.77370   0.44650   0.01267  Uiso   1.00
H263   H     0.81350   0.69610   0.45090   0.01267  Uiso   1.00
H264   H     0.98610   0.76890   0.40850   0.01267  Uiso   1.00
H265   H     0.98540   0.72160   0.41180   0.01267  Uiso   1.00
H266   H     0.93590   0.81650   0.35710   0.01267  Uiso   1.00
H267   H     0.98440   0.78120   0.33300   0.01267  Uiso   1.00
H268   H     0.93680   0.76860   0.35960   0.01267  Uiso   1.00
H269   H     0.95170   0.74330   0.50310   0.01267  Uiso   1.00
H270   H     0.95130   0.69590   0.50610   0.01267  Uiso   1.00
H271   H     0.87010   0.72210   0.54150   0.01267  Uiso   1.00
H272   H     0.89960   0.71040   0.57200   0.01267  Uiso   1.00
H273   H     0.87540   0.76420   0.54380   0.01267  Uiso   1.00
H274   H     0.46350   0.93510   0.93590   0.01267  Uiso   1.00
H275   H     0.44650   0.99070   0.78910   0.01267  Uiso   1.00
H276   H     0.45090   0.03950   0.81350   0.01267  Uiso   1.00
H277   H     0.40850   0.83650   0.98610   0.01267  Uiso   1.00
H278   H     0.41180   0.88120   0.98540   0.01267  Uiso   1.00
H279   H     0.35710   0.89050   0.93590   0.01267  Uiso   1.00
H280   H     0.33300   0.90140   0.98440   0.01267  Uiso   1.00
H281   H     0.35960   0.93500   0.93680   0.01267  Uiso   1.00
H282   H     0.50310   0.80190   0.95170   0.01267  Uiso   1.00
H283   H     0.50610   0.84670   0.95130   0.01267  Uiso   1.00
H284   H     0.54150   0.86630   0.87010   0.01267  Uiso   1.00
H285   H     0.57200   0.81800   0.89960   0.01267  Uiso   1.00
H286   H     0.54380   0.81660   0.87540   0.01267  Uiso   1.00
H287   H     0.93510   0.46350   0.66550   0.01267  Uiso   1.00
H288   H     0.99070   0.44650   0.77370   0.01267  Uiso   1.00
H289   H     0.03950   0.45090   0.69610   0.01267  Uiso   1.00
H290   H     0.83650   0.40850   0.76890   0.01267  Uiso   1.00
H291   H     0.88120   0.41180   0.72160   0.01267  Uiso   1.00
H292   H     0.89050   0.35710   0.81650   0.01267  Uiso   1.00
H293   H     0.90140   0.33300   0.78120   0.01267  Uiso   1.00
H294   H     0.93500   0.35960   0.76860   0.01267  Uiso   1.00
H295   H     0.80190   0.50310   0.74330   0.01267  Uiso   1.00
H296   H     0.84670   0.50610   0.69590   0.01267  Uiso   1.00
H297   H     0.86630   0.54150   0.72210   0.01267  Uiso   1.00
H298   H     0.81800   0.57200   0.71040   0.01267  Uiso   1.00
H299   H     0.81660   0.54380   0.76420   0.01267  Uiso   1.00
H300   H     0.66550   0.93590   0.93510   0.01267  Uiso   1.00
H301   H     0.77370   0.78910   0.99070   0.01267  Uiso   1.00
H302   H     0.69610   0.81350   0.03950   0.01267  Uiso   1.00
H303   H     0.76890   0.98610   0.83650   0.01267  Uiso   1.00
H304   H     0.72160   0.98540   0.88120   0.01267  Uiso   1.00
H305   H     0.81650   0.93590   0.89050   0.01267  Uiso   1.00
H306   H     0.78120   0.98440   0.90140   0.01267  Uiso   1.00
H307   H     0.76860   0.93680   0.93500   0.01267  Uiso   1.00
H308   H     0.74330   0.95170   0.80190   0.01267  Uiso   1.00
H309   H     0.69590   0.95130   0.84670   0.01267  Uiso   1.00
H310   H     0.72210   0.87010   0.86630   0.01267  Uiso   1.00
H311   H     0.71040   0.89960   0.81800   0.01267  Uiso   1.00
H312   H     0.76420   0.87540   0.81660   0.01267  Uiso   1.00
Pb1    Pb    0.08532   0.52732   0.91468   0.01267  Uiso   1.00
Pb2    Pb    0.52732   0.08532   0.47268   0.01267  Uiso   1.00
Pb3    Pb    0.91468   0.47268   0.08532   0.01267  Uiso   1.00
Pb4    Pb    0.47268   0.91468   0.52732   0.01267  Uiso   1.00
Pb5    Pb    0.08532   0.91468   0.47268   0.01267  Uiso   1.00
Pb6    Pb    0.52732   0.47268   0.91468   0.01267  Uiso   1.00
Pb7    Pb    0.91468   0.08532   0.52732   0.01267  Uiso   1.00
Pb8    Pb    0.47268   0.52732   0.08532   0.01267  Uiso   1.00
Pb9    Pb    0.08532   0.47268   0.52732   0.01267  Uiso   1.00
Pb10   Pb    0.52732   0.91468   0.08532   0.01267  Uiso   1.00
Pb11   Pb    0.91468   0.52732   0.47268   0.01267  Uiso   1.00
Pb12   Pb    0.47268   0.08532   0.91468   0.01267  Uiso   1.00
C1     C     0.10745   0.54075   0.97617   0.01267  Uiso   1.00
C2     C     0.12239   0.54487   0.00699   0.01267  Uiso   1.00
C3     C     0.09329   0.54131   0.05329   0.01267  Uiso   1.00
C4     C     0.10671   0.54489   0.08309   0.01267  Uiso   1.00
C5     C     0.15040   0.54774   0.06820   0.01267  Uiso   1.00
C6     C     0.18097   0.55037   0.02073   0.01267  Uiso   1.00
C7     C     0.16588   0.54824   0.99196   0.01267  Uiso   1.00
C8     C     0.07825   0.54555   0.13309   0.01267  Uiso   1.00
C9     C     0.11298   0.54832   0.14508   0.01267  Uiso   1.00
C10    C     0.15532   0.54808   0.10830   0.01267  Uiso   1.00
C11    C     0.03350   0.59070   0.13090   0.01267  Uiso   1.00
C12    C     0.04520   0.64020   0.09780   0.01267  Uiso   1.00
C13    C     0.06770   0.49650   0.16530   0.01267  Uiso   1.00
C14    C     0.10870   0.45690   0.16610   0.01267  Uiso   1.00
C15    C     0.54075   0.10745   0.37563   0.01267  Uiso   1.00
C16    C     0.54487   0.12239   0.32575   0.01267  Uiso   1.00
C17    C     0.54131   0.09329   0.31211   0.01267  Uiso   1.00
C18    C     0.54489   0.10671   0.26531   0.01267  Uiso   1.00
C19    C     0.54774   0.15040   0.23366   0.01267  Uiso   1.00
C20    C     0.55037   0.18097   0.24793   0.01267  Uiso   1.00
C21    C     0.54824   0.16588   0.29392   0.01267  Uiso   1.00
C22    C     0.54555   0.07825   0.24311   0.01267  Uiso   1.00
C23    C     0.54832   0.11298   0.19362   0.01267  Uiso   1.00
C24    C     0.54808   0.15532   0.18830   0.01267  Uiso   1.00
C25    C     0.59070   0.03350   0.24490   0.01267  Uiso   1.00
C26    C     0.64020   0.04520   0.21680   0.01267  Uiso   1.00
C27    C     0.49650   0.06770   0.27050   0.01267  Uiso   1.00
C28    C     0.45690   0.10870   0.26830   0.01267  Uiso   1.00
C29    C     0.97617   0.37563   0.10745   0.01267  Uiso   1.00
C30    C     0.00699   0.32575   0.12239   0.01267  Uiso   1.00
C31    C     0.05329   0.31211   0.09329   0.01267  Uiso   1.00
C32    C     0.08309   0.26531   0.10671   0.01267  Uiso   1.00
C33    C     0.06820   0.23366   0.15040   0.01267  Uiso   1.00
C34    C     0.02073   0.24793   0.18097   0.01267  Uiso   1.00
C35    C     0.99196   0.29392   0.16588   0.01267  Uiso   1.00
C36    C     0.13309   0.24311   0.07825   0.01267  Uiso   1.00
C37    C     0.14508   0.19362   0.11298   0.01267  Uiso   1.00
C38    C     0.10830   0.18830   0.15532   0.01267  Uiso   1.00
C39    C     0.13090   0.24490   0.03350   0.01267  Uiso   1.00
C40    C     0.09780   0.21680   0.04520   0.01267  Uiso   1.00
C41    C     0.16530   0.27050   0.06770   0.01267  Uiso   1.00
C42    C     0.16610   0.26830   0.10870   0.01267  Uiso   1.00
C43    C     0.37563   0.97617   0.54075   0.01267  Uiso   1.00
C44    C     0.32575   0.00699   0.54487   0.01267  Uiso   1.00
C45    C     0.31211   0.05329   0.54131   0.01267  Uiso   1.00
C46    C     0.26531   0.08309   0.54489   0.01267  Uiso   1.00
C47    C     0.23366   0.06820   0.54774   0.01267  Uiso   1.00
C48    C     0.24793   0.02073   0.55037   0.01267  Uiso   1.00
C49    C     0.29392   0.99196   0.54824   0.01267  Uiso   1.00
C50    C     0.24311   0.13309   0.54555   0.01267  Uiso   1.00
C51    C     0.19362   0.14508   0.54832   0.01267  Uiso   1.00
C52    C     0.18830   0.10830   0.54808   0.01267  Uiso   1.00
C53    C     0.24490   0.13090   0.59070   0.01267  Uiso   1.00
C54    C     0.21680   0.09780   0.64020   0.01267  Uiso   1.00
C55    C     0.27050   0.16530   0.49650   0.01267  Uiso   1.00
C56    C     0.26830   0.16610   0.45690   0.01267  Uiso   1.00
C57    C     0.10745   0.97617   0.37563   0.01267  Uiso   1.00
C58    C     0.12239   0.00699   0.32575   0.01267  Uiso   1.00
C59    C     0.09329   0.05329   0.31211   0.01267  Uiso   1.00
C60    C     0.10671   0.08309   0.26531   0.01267  Uiso   1.00
C61    C     0.15040   0.06820   0.23366   0.01267  Uiso   1.00
C62    C     0.18097   0.02073   0.24793   0.01267  Uiso   1.00
C63    C     0.16588   0.99196   0.29392   0.01267  Uiso   1.00
C64    C     0.07825   0.13309   0.24311   0.01267  Uiso   1.00
C65    C     0.11298   0.14508   0.19362   0.01267  Uiso   1.00
C66    C     0.15532   0.10830   0.18830   0.01267  Uiso   1.00
C67    C     0.03350   0.13090   0.24490   0.01267  Uiso   1.00
C68    C     0.04520   0.09780   0.21680   0.01267  Uiso   1.00
C69    C     0.06770   0.16530   0.27050   0.01267  Uiso   1.00
C70    C     0.10870   0.16610   0.26830   0.01267  Uiso   1.00
C71    C     0.54075   0.37563   0.97617   0.01267  Uiso   1.00
C72    C     0.54487   0.32575   0.00699   0.01267  Uiso   1.00
C73    C     0.54131   0.31211   0.05329   0.01267  Uiso   1.00
C74    C     0.54489   0.26531   0.08309   0.01267  Uiso   1.00
C75    C     0.54774   0.23366   0.06820   0.01267  Uiso   1.00
C76    C     0.55037   0.24793   0.02073   0.01267  Uiso   1.00
C77    C     0.54824   0.29392   0.99196   0.01267  Uiso   1.00
C78    C     0.54555   0.24311   0.13309   0.01267  Uiso   1.00
C79    C     0.54832   0.19362   0.14508   0.01267  Uiso   1.00
C80    C     0.54808   0.18830   0.10830   0.01267  Uiso   1.00
C81    C     0.59070   0.24490   0.13090   0.01267  Uiso   1.00
C82    C     0.64020   0.21680   0.09780   0.01267  Uiso   1.00
C83    C     0.49650   0.27050   0.16530   0.01267  Uiso   1.00
C84    C     0.45690   0.26830   0.16610   0.01267  Uiso   1.00
C85    C     0.97617   0.10745   0.54075   0.01267  Uiso   1.00
C86    C     0.00699   0.12239   0.54487   0.01267  Uiso   1.00
C87    C     0.05329   0.09329   0.54131   0.01267  Uiso   1.00
C88    C     0.08309   0.10671   0.54489   0.01267  Uiso   1.00
C89    C     0.06820   0.15040   0.54774   0.01267  Uiso   1.00
C90    C     0.02073   0.18097   0.55037   0.01267  Uiso   1.00
C91    C     0.99196   0.16588   0.54824   0.01267  Uiso   1.00
C92    C     0.13309   0.07825   0.54555   0.01267  Uiso   1.00
C93    C     0.14508   0.11298   0.54832   0.01267  Uiso   1.00
C94    C     0.10830   0.15532   0.54808   0.01267  Uiso   1.00
C95    C     0.13090   0.03350   0.59070   0.01267  Uiso   1.00
C96    C     0.09780   0.04520   0.64020   0.01267  Uiso   1.00
C97    C     0.16530   0.06770   0.49650   0.01267  Uiso   1.00
C98    C     0.16610   0.10870   0.45690   0.01267  Uiso   1.00
C99    C     0.37563   0.54075   0.10745   0.01267  Uiso   1.00
C100   C     0.32575   0.54487   0.12239   0.01267  Uiso   1.00
C101   C     0.31211   0.54131   0.09329   0.01267  Uiso   1.00
C102   C     0.26531   0.54489   0.10671   0.01267  Uiso   1.00
C103   C     0.23366   0.54774   0.15040   0.01267  Uiso   1.00
C104   C     0.24793   0.55037   0.18097   0.01267  Uiso   1.00
C105   C     0.29392   0.54824   0.16588   0.01267  Uiso   1.00
C106   C     0.24311   0.54555   0.07825   0.01267  Uiso   1.00
C107   C     0.19362   0.54832   0.11298   0.01267  Uiso   1.00
C108   C     0.18830   0.54808   0.15532   0.01267  Uiso   1.00
C109   C     0.24490   0.59070   0.03350   0.01267  Uiso   1.00
C110   C     0.21680   0.64020   0.04520   0.01267  Uiso   1.00
C111   C     0.27050   0.49650   0.06770   0.01267  Uiso   1.00
C112   C     0.26830   0.45690   0.10870   0.01267  Uiso   1.00
C113   C     0.10745   0.37563   0.54075   0.01267  Uiso   1.00
C114   C     0.12239   0.32575   0.54487   0.01267  Uiso   1.00
C115   C     0.09329   0.31211   0.54131   0.01267  Uiso   1.00
C116   C     0.10671   0.26531   0.54489   0.01267  Uiso   1.00
C117   C     0.15040   0.23366   0.54774   0.01267  Uiso   1.00
C118   C     0.18097   0.24793   0.55037   0.01267  Uiso   1.00
C119   C     0.16588   0.29392   0.54824   0.01267  Uiso   1.00
C120   C     0.07825   0.24311   0.54555   0.01267  Uiso   1.00
C121   C     0.11298   0.19362   0.54832   0.01267  Uiso   1.00
C122   C     0.15532   0.18830   0.54808   0.01267  Uiso   1.00
C123   C     0.03350   0.24490   0.59070   0.01267  Uiso   1.00
C124   C     0.04520   0.21680   0.64020   0.01267  Uiso   1.00
C125   C     0.06770   0.27050   0.49650   0.01267  Uiso   1.00
C126   C     0.10870   0.26830   0.45690   0.01267  Uiso   1.00
C127   C     0.54075   0.97617   0.10745   0.01267  Uiso   1.00
C128   C     0.54487   0.00699   0.12239   0.01267  Uiso   1.00
C129   C     0.54131   0.05329   0.09329   0.01267  Uiso   1.00
C130   C     0.54489   0.08309   0.10671   0.01267  Uiso   1.00
C131   C     0.54774   0.06820   0.15040   0.01267  Uiso   1.00
C132   C     0.55037   0.02073   0.18097   0.01267  Uiso   1.00
C133   C     0.54824   0.99196   0.16588   0.01267  Uiso   1.00
C134   C     0.54555   0.13309   0.07825   0.01267  Uiso   1.00
C135   C     0.54832   0.14508   0.11298   0.01267  Uiso   1.00
C136   C     0.54808   0.10830   0.15532   0.01267  Uiso   1.00
C137   C     0.59070   0.13090   0.03350   0.01267  Uiso   1.00
C138   C     0.64020   0.09780   0.04520   0.01267  Uiso   1.00
C139   C     0.49650   0.16530   0.06770   0.01267  Uiso   1.00
C140   C     0.45690   0.16610   0.10870   0.01267  Uiso   1.00
C141   C     0.97617   0.54075   0.37563   0.01267  Uiso   1.00
C142   C     0.00699   0.54487   0.32575   0.01267  Uiso   1.00
C143   C     0.05329   0.54131   0.31211   0.01267  Uiso   1.00
C144   C     0.08309   0.54489   0.26531   0.01267  Uiso   1.00
C145   C     0.06820   0.54774   0.23366   0.01267  Uiso   1.00
C146   C     0.02073   0.55037   0.24793   0.01267  Uiso   1.00
C147   C     0.99196   0.54824   0.29392   0.01267  Uiso   1.00
C148   C     0.13309   0.54555   0.24311   0.01267  Uiso   1.00
C149   C     0.14508   0.54832   0.19362   0.01267  Uiso   1.00
C150   C     0.10830   0.54808   0.18830   0.01267  Uiso   1.00
C151   C     0.13090   0.59070   0.24490   0.01267  Uiso   1.00
C152   C     0.09780   0.64020   0.21680   0.01267  Uiso   1.00
C153   C     0.16530   0.49650   0.27050   0.01267  Uiso   1.00
C154   C     0.16610   0.45690   0.26830   0.01267  Uiso   1.00
C155   C     0.37563   0.10745   0.97617   0.01267  Uiso   1.00
C156   C     0.32575   0.12239   0.00699   0.01267  Uiso   1.00
C157   C     0.31211   0.09329   0.05329   0.01267  Uiso   1.00
C158   C     0.26531   0.10671   0.08309   0.01267  Uiso   1.00
C159   C     0.23366   0.15040   0.06820   0.01267  Uiso   1.00
C160   C     0.24793   0.18097   0.02073   0.01267  Uiso   1.00
C161   C     0.29392   0.16588   0.99196   0.01267  Uiso   1.00
C162   C     0.24311   0.07825   0.13309   0.01267  Uiso   1.00
C163   C     0.19362   0.11298   0.14508   0.01267  Uiso   1.00
C164   C     0.18830   0.15532   0.10830   0.01267  Uiso   1.00
C165   C     0.24490   0.03350   0.13090   0.01267  Uiso   1.00
C166   C     0.21680   0.04520   0.09780   0.01267  Uiso   1.00
C167   C     0.27050   0.06770   0.16530   0.01267  Uiso   1.00
C168   C     0.26830   0.10870   0.16610   0.01267  Uiso   1.00
C169   C     0.89255   0.45925   0.02383   0.01267  Uiso   1.00
C170   C     0.87761   0.45513   0.99301   0.01267  Uiso   1.00
C171   C     0.90671   0.45869   0.94671   0.01267  Uiso   1.00
C172   C     0.89329   0.45511   0.91691   0.01267  Uiso   1.00
C173   C     0.84960   0.45226   0.93180   0.01267  Uiso   1.00
C174   C     0.81903   0.44963   0.97927   0.01267  Uiso   1.00
C175   C     0.83412   0.45176   0.00804   0.01267  Uiso   1.00
C176   C     0.92175   0.45445   0.86691   0.01267  Uiso   1.00
C177   C     0.88702   0.45168   0.85492   0.01267  Uiso   1.00
C178   C     0.84468   0.45192   0.89170   0.01267  Uiso   1.00
C179   C     0.96650   0.40930   0.86910   0.01267  Uiso   1.00
C180   C     0.95480   0.35980   0.90220   0.01267  Uiso   1.00
C181   C     0.93230   0.50350   0.83470   0.01267  Uiso   1.00
C182   C     0.89130   0.54310   0.83390   0.01267  Uiso   1.00
C183   C     0.45925   0.89255   0.62437   0.01267  Uiso   1.00
C184   C     0.45513   0.87761   0.67425   0.01267  Uiso   1.00
C185   C     0.45869   0.90671   0.68789   0.01267  Uiso   1.00
C186   C     0.45511   0.89329   0.73469   0.01267  Uiso   1.00
C187   C     0.45226   0.84960   0.76634   0.01267  Uiso   1.00
C188   C     0.44963   0.81903   0.75207   0.01267  Uiso   1.00
C189   C     0.45176   0.83412   0.70608   0.01267  Uiso   1.00
C190   C     0.45445   0.92175   0.75689   0.01267  Uiso   1.00
C191   C     0.45168   0.88702   0.80638   0.01267  Uiso   1.00
C192   C     0.45192   0.84468   0.81170   0.01267  Uiso   1.00
C193   C     0.40930   0.96650   0.75510   0.01267  Uiso   1.00
C194   C     0.35980   0.95480   0.78320   0.01267  Uiso   1.00
C195   C     0.50350   0.93230   0.72950   0.01267  Uiso   1.00
C196   C     0.54310   0.89130   0.73170   0.01267  Uiso   1.00
C197   C     0.02383   0.62437   0.89255   0.01267  Uiso   1.00
C198   C     0.99301   0.67425   0.87761   0.01267  Uiso   1.00
C199   C     0.94671   0.68789   0.90671   0.01267  Uiso   1.00
C200   C     0.91691   0.73469   0.89329   0.01267  Uiso   1.00
C201   C     0.93180   0.76634   0.84960   0.01267  Uiso   1.00
C202   C     0.97927   0.75207   0.81903   0.01267  Uiso   1.00
C203   C     0.00804   0.70608   0.83412   0.01267  Uiso   1.00
C204   C     0.86691   0.75689   0.92175   0.01267  Uiso   1.00
C205   C     0.85492   0.80638   0.88702   0.01267  Uiso   1.00
C206   C     0.89170   0.81170   0.84468   0.01267  Uiso   1.00
C207   C     0.86910   0.75510   0.96650   0.01267  Uiso   1.00
C208   C     0.90220   0.78320   0.95480   0.01267  Uiso   1.00
C209   C     0.83470   0.72950   0.93230   0.01267  Uiso   1.00
C210   C     0.83390   0.73170   0.89130   0.01267  Uiso   1.00
C211   C     0.62437   0.02383   0.45925   0.01267  Uiso   1.00
C212   C     0.67425   0.99301   0.45513   0.01267  Uiso   1.00
C213   C     0.68789   0.94671   0.45869   0.01267  Uiso   1.00
C214   C     0.73469   0.91691   0.45511   0.01267  Uiso   1.00
C215   C     0.76634   0.93180   0.45226   0.01267  Uiso   1.00
C216   C     0.75207   0.97927   0.44963   0.01267  Uiso   1.00
C217   C     0.70608   0.00804   0.45176   0.01267  Uiso   1.00
C218   C     0.75689   0.86691   0.45445   0.01267  Uiso   1.00
C219   C     0.80638   0.85492   0.45168   0.01267  Uiso   1.00
C220   C     0.81170   0.89170   0.45192   0.01267  Uiso   1.00
C221   C     0.75510   0.86910   0.40930   0.01267  Uiso   1.00
C222   C     0.78320   0.90220   0.35980   0.01267  Uiso   1.00
C223   C     0.72950   0.83470   0.50350   0.01267  Uiso   1.00
C224   C     0.73170   0.83390   0.54310   0.01267  Uiso   1.00
C225   C     0.89255   0.02383   0.62437   0.01267  Uiso   1.00
C226   C     0.87761   0.99301   0.67425   0.01267  Uiso   1.00
C227   C     0.90671   0.94671   0.68789   0.01267  Uiso   1.00
C228   C     0.89329   0.91691   0.73469   0.01267  Uiso   1.00
C229   C     0.84960   0.93180   0.76634   0.01267  Uiso   1.00
C230   C     0.81903   0.97927   0.75207   0.01267  Uiso   1.00
C231   C     0.83412   0.00804   0.70608   0.01267  Uiso   1.00
C232   C     0.92175   0.86691   0.75689   0.01267  Uiso   1.00
C233   C     0.88702   0.85492   0.80638   0.01267  Uiso   1.00
C234   C     0.84468   0.89170   0.81170   0.01267  Uiso   1.00
C235   C     0.96650   0.86910   0.75510   0.01267  Uiso   1.00
C236   C     0.95480   0.90220   0.78320   0.01267  Uiso   1.00
C237   C     0.93230   0.83470   0.72950   0.01267  Uiso   1.00
C238   C     0.89130   0.83390   0.73170   0.01267  Uiso   1.00
C239   C     0.45925   0.62437   0.02383   0.01267  Uiso   1.00
C240   C     0.45513   0.67425   0.99301   0.01267  Uiso   1.00
C241   C     0.45869   0.68789   0.94671   0.01267  Uiso   1.00
C242   C     0.45511   0.73469   0.91691   0.01267  Uiso   1.00
C243   C     0.45226   0.76634   0.93180   0.01267  Uiso   1.00
C244   C     0.44963   0.75207   0.97927   0.01267  Uiso   1.00
C245   C     0.45176   0.70608   0.00804   0.01267  Uiso   1.00
C246   C     0.45445   0.75689   0.86691   0.01267  Uiso   1.00
C247   C     0.45168   0.80638   0.85492   0.01267  Uiso   1.00
C248   C     0.45192   0.81170   0.89170   0.01267  Uiso   1.00
C249   C     0.40930   0.75510   0.86910   0.01267  Uiso   1.00
C250   C     0.35980   0.78320   0.90220   0.01267  Uiso   1.00
C251   C     0.50350   0.72950   0.83470   0.01267  Uiso   1.00
C252   C     0.54310   0.73170   0.83390   0.01267  Uiso   1.00
C253   C     0.02383   0.89255   0.45925   0.01267  Uiso   1.00
C254   C     0.99301   0.87761   0.45513   0.01267  Uiso   1.00
C255   C     0.94671   0.90671   0.45869   0.01267  Uiso   1.00
C256   C     0.91691   0.89329   0.45511   0.01267  Uiso   1.00
C257   C     0.93180   0.84960   0.45226   0.01267  Uiso   1.00
C258   C     0.97927   0.81903   0.44963   0.01267  Uiso   1.00
C259   C     0.00804   0.83412   0.45176   0.01267  Uiso   1.00
C260   C     0.86691   0.92175   0.45445   0.01267  Uiso   1.00
C261   C     0.85492   0.88702   0.45168   0.01267  Uiso   1.00
C262   C     0.89170   0.84468   0.45192   0.01267  Uiso   1.00
C263   C     0.86910   0.96650   0.40930   0.01267  Uiso   1.00
C264   C     0.90220   0.95480   0.35980   0.01267  Uiso   1.00
C265   C     0.83470   0.93230   0.50350   0.01267  Uiso   1.00
C266   C     0.83390   0.89130   0.54310   0.01267  Uiso   1.00
C267   C     0.62437   0.45925   0.89255   0.01267  Uiso   1.00
C268   C     0.67425   0.45513   0.87761   0.01267  Uiso   1.00
C269   C     0.68789   0.45869   0.90671   0.01267  Uiso   1.00
C270   C     0.73469   0.45511   0.89329   0.01267  Uiso   1.00
C271   C     0.76634   0.45226   0.84960   0.01267  Uiso   1.00
C272   C     0.75207   0.44963   0.81903   0.01267  Uiso   1.00
C273   C     0.70608   0.45176   0.83412   0.01267  Uiso   1.00
C274   C     0.75689   0.45445   0.92175   0.01267  Uiso   1.00
C275   C     0.80638   0.45168   0.88702   0.01267  Uiso   1.00
C276   C     0.81170   0.45192   0.84468   0.01267  Uiso   1.00
C277   C     0.75510   0.40930   0.96650   0.01267  Uiso   1.00
C278   C     0.78320   0.35980   0.95480   0.01267  Uiso   1.00
C279   C     0.72950   0.50350   0.93230   0.01267  Uiso   1.00
C280   C     0.73170   0.54310   0.89130   0.01267  Uiso   1.00
C281   C     0.89255   0.62437   0.45925   0.01267  Uiso   1.00
C282   C     0.87761   0.67425   0.45513   0.01267  Uiso   1.00
C283   C     0.90671   0.68789   0.45869   0.01267  Uiso   1.00
C284   C     0.89329   0.73469   0.45511   0.01267  Uiso   1.00
C285   C     0.84960   0.76634   0.45226   0.01267  Uiso   1.00
C286   C     0.81903   0.75207   0.44963   0.01267  Uiso   1.00
C287   C     0.83412   0.70608   0.45176   0.01267  Uiso   1.00
C288   C     0.92175   0.75689   0.45445   0.01267  Uiso   1.00
C289   C     0.88702   0.80638   0.45168   0.01267  Uiso   1.00
C290   C     0.84468   0.81170   0.45192   0.01267  Uiso   1.00
C291   C     0.96650   0.75510   0.40930   0.01267  Uiso   1.00
C292   C     0.95480   0.78320   0.35980   0.01267  Uiso   1.00
C293   C     0.93230   0.72950   0.50350   0.01267  Uiso   1.00
C294   C     0.89130   0.73170   0.54310   0.01267  Uiso   1.00
C295   C     0.45925   0.02383   0.89255   0.01267  Uiso   1.00
C296   C     0.45513   0.99301   0.87761   0.01267  Uiso   1.00
C297   C     0.45869   0.94671   0.90671   0.01267  Uiso   1.00
C298   C     0.45511   0.91691   0.89329   0.01267  Uiso   1.00
C299   C     0.45226   0.93180   0.84960   0.01267  Uiso   1.00
C300   C     0.44963   0.97927   0.81903   0.01267  Uiso   1.00
C301   C     0.45176   0.00804   0.83412   0.01267  Uiso   1.00
C302   C     0.45445   0.86691   0.92175   0.01267  Uiso   1.00
C303   C     0.45168   0.85492   0.88702   0.01267  Uiso   1.00
C304   C     0.45192   0.89170   0.84468   0.01267  Uiso   1.00
C305   C     0.40930   0.86910   0.96650   0.01267  Uiso   1.00
C306   C     0.35980   0.90220   0.95480   0.01267  Uiso   1.00
C307   C     0.50350   0.83470   0.93230   0.01267  Uiso   1.00
C308   C     0.54310   0.83390   0.89130   0.01267  Uiso   1.00
C309   C     0.02383   0.45925   0.62437   0.01267  Uiso   1.00
C310   C     0.99301   0.45513   0.67425   0.01267  Uiso   1.00
C311   C     0.94671   0.45869   0.68789   0.01267  Uiso   1.00
C312   C     0.91691   0.45511   0.73469   0.01267  Uiso   1.00
C313   C     0.93180   0.45226   0.76634   0.01267  Uiso   1.00
C314   C     0.97927   0.44963   0.75207   0.01267  Uiso   1.00
C315   C     0.00804   0.45176   0.70608   0.01267  Uiso   1.00
C316   C     0.86691   0.45445   0.75689   0.01267  Uiso   1.00
C317   C     0.85492   0.45168   0.80638   0.01267  Uiso   1.00
C318   C     0.89170   0.45192   0.81170   0.01267  Uiso   1.00
C319   C     0.86910   0.40930   0.75510   0.01267  Uiso   1.00
C320   C     0.90220   0.35980   0.78320   0.01267  Uiso   1.00
C321   C     0.83470   0.50350   0.72950   0.01267  Uiso   1.00
C322   C     0.83390   0.54310   0.73170   0.01267  Uiso   1.00
C323   C     0.62437   0.89255   0.02383   0.01267  Uiso   1.00
C324   C     0.67425   0.87761   0.99301   0.01267  Uiso   1.00
C325   C     0.68789   0.90671   0.94671   0.01267  Uiso   1.00
C326   C     0.73469   0.89329   0.91691   0.01267  Uiso   1.00
C327   C     0.76634   0.84960   0.93180   0.01267  Uiso   1.00
C328   C     0.75207   0.81903   0.97927   0.01267  Uiso   1.00
C329   C     0.70608   0.83412   0.00804   0.01267  Uiso   1.00
C330   C     0.75689   0.92175   0.86691   0.01267  Uiso   1.00
C331   C     0.80638   0.88702   0.85492   0.01267  Uiso   1.00
C332   C     0.81170   0.84468   0.89170   0.01267  Uiso   1.00
C333   C     0.75510   0.96650   0.86910   0.01267  Uiso   1.00
C334   C     0.78320   0.95480   0.90220   0.01267  Uiso   1.00
C335   C     0.72950   0.93230   0.83470   0.01267  Uiso   1.00
C336   C     0.73170   0.89130   0.83390   0.01267  Uiso   1.00
O1     O     0.07031   0.53143   0.99255   0.01267  Uiso   1.00
O2     O     0.13284   0.54376   0.93462   0.01267  Uiso   1.00
O3     O     0.53143   0.07031   0.40571   0.01267  Uiso   1.00
O4     O     0.54376   0.13284   0.38878   0.01267  Uiso   1.00
O5     O     0.99255   0.40571   0.07031   0.01267  Uiso   1.00
O6     O     0.93462   0.38878   0.13284   0.01267  Uiso   1.00
O7     O     0.40571   0.99255   0.53143   0.01267  Uiso   1.00
O8     O     0.38878   0.93462   0.54376   0.01267  Uiso   1.00
O9     O     0.07031   0.99255   0.40571   0.01267  Uiso   1.00
O10    O     0.13284   0.93462   0.38878   0.01267  Uiso   1.00
O11    O     0.53143   0.40571   0.99255   0.01267  Uiso   1.00
O12    O     0.54376   0.38878   0.93462   0.01267  Uiso   1.00
O13    O     0.99255   0.07031   0.53143   0.01267  Uiso   1.00
O14    O     0.93462   0.13284   0.54376   0.01267  Uiso   1.00
O15    O     0.40571   0.53143   0.07031   0.01267  Uiso   1.00
O16    O     0.38878   0.54376   0.13284   0.01267  Uiso   1.00
O17    O     0.07031   0.40571   0.53143   0.01267  Uiso   1.00
O18    O     0.13284   0.38878   0.54376   0.01267  Uiso   1.00
O19    O     0.53143   0.99255   0.07031   0.01267  Uiso   1.00
O20    O     0.54376   0.93462   0.13284   0.01267  Uiso   1.00
O21    O     0.99255   0.53143   0.40571   0.01267  Uiso   1.00
O22    O     0.93462   0.54376   0.38878   0.01267  Uiso   1.00
O23    O     0.40571   0.07031   0.99255   0.01267  Uiso   1.00
O24    O     0.38878   0.13284   0.93462   0.01267  Uiso   1.00
O25    O     0.92969   0.46857   0.00745   0.01267  Uiso   1.00
O26    O     0.86716   0.45624   0.06538   0.01267  Uiso   1.00
O27    O     0.46857   0.92969   0.59429   0.01267  Uiso   1.00
O28    O     0.45624   0.86716   0.61122   0.01267  Uiso   1.00
O29    O     0.00745   0.59429   0.92969   0.01267  Uiso   1.00
O30    O     0.06538   0.61122   0.86716   0.01267  Uiso   1.00
O31    O     0.59429   0.00745   0.46857   0.01267  Uiso   1.00
O32    O     0.61122   0.06538   0.45624   0.01267  Uiso   1.00
O33    O     0.92969   0.00745   0.59429   0.01267  Uiso   1.00
O34    O     0.86716   0.06538   0.61122   0.01267  Uiso   1.00
O35    O     0.46857   0.59429   0.00745   0.01267  Uiso   1.00
O36    O     0.45624   0.61122   0.06538   0.01267  Uiso   1.00
O37    O     0.00745   0.92969   0.46857   0.01267  Uiso   1.00
O38    O     0.06538   0.86716   0.45624   0.01267  Uiso   1.00
O39    O     0.59429   0.46857   0.92969   0.01267  Uiso   1.00
O40    O     0.61122   0.45624   0.86716   0.01267  Uiso   1.00
O41    O     0.92969   0.59429   0.46857   0.01267  Uiso   1.00
O42    O     0.86716   0.61122   0.45624   0.01267  Uiso   1.00
O43    O     0.46857   0.00745   0.92969   0.01267  Uiso   1.00
O44    O     0.45624   0.06538   0.86716   0.01267  Uiso   1.00
O45    O     0.00745   0.46857   0.59429   0.01267  Uiso   1.00
O46    O     0.06538   0.45624   0.61122   0.01267  Uiso   1.00
O47    O     0.59429   0.92969   0.00745   0.01267  Uiso   1.00
O48    O     0.61122   0.86716   0.06538   0.01267  Uiso   1.00
O49    O     0.15190   0.51450   0.84810   0.01267  Uiso   1.00
O50    O     0.51450   0.15190   0.48550   0.01267  Uiso   1.00
O51    O     0.84810   0.48550   0.15190   0.01267  Uiso   1.00
O52    O     0.48550   0.84810   0.51450   0.01267  Uiso   1.00
O53    O     0.15190   0.84810   0.48550   0.01267  Uiso   1.00
O54    O     0.51450   0.48550   0.84810   0.01267  Uiso   1.00
O55    O     0.84810   0.15190   0.51450   0.01267  Uiso   1.00
O56    O     0.48550   0.51450   0.15190   0.01267  Uiso   1.00
O57    O     0.15190   0.48550   0.51450   0.01267  Uiso   1.00
O58    O     0.51450   0.84810   0.15190   0.01267  Uiso   1.00
O59    O     0.84810   0.51450   0.48550   0.01267  Uiso   1.00
O60    O     0.48550   0.15190   0.84810   0.01267  Uiso   1.00
H313   H     0.96350   0.43590   0.43510   0.01267  Uiso   1.00
H314   H     0.94650   0.28910   0.49070   0.01267  Uiso   1.00
H315   H     0.95090   0.31350   0.53950   0.01267  Uiso   1.00
H316   H     0.90850   0.48610   0.33650   0.01267  Uiso   1.00
H317   H     0.91180   0.48540   0.38120   0.01267  Uiso   1.00
H318   H     0.85710   0.43590   0.39050   0.01267  Uiso   1.00
H319   H     0.83300   0.48440   0.40140   0.01267  Uiso   1.00
H320   H     0.85960   0.43680   0.43500   0.01267  Uiso   1.00
H321   H     0.00310   0.45170   0.30190   0.01267  Uiso   1.00
H322   H     0.00610   0.45130   0.34670   0.01267  Uiso   1.00
H323   H     0.04150   0.37010   0.36630   0.01267  Uiso   1.00
H324   H     0.07200   0.39960   0.31800   0.01267  Uiso   1.00
H325   H     0.04380   0.37540   0.31660   0.01267  Uiso   1.00
H326   H     0.43590   0.96350   0.16550   0.01267  Uiso   1.00
H327   H     0.28910   0.94650   0.27370   0.01267  Uiso   1.00
H328   H     0.31350   0.95090   0.19610   0.01267  Uiso   1.00
H329   H     0.48610   0.90850   0.26890   0.01267  Uiso   1.00
H330   H     0.48540   0.91180   0.22160   0.01267  Uiso   1.00
H331   H     0.43590   0.85710   0.31650   0.01267  Uiso   1.00
H332   H     0.48440   0.83300   0.28120   0.01267  Uiso   1.00
H333   H     0.43680   0.85960   0.26860   0.01267  Uiso   1.00
H334   H     0.45170   0.00310   0.24330   0.01267  Uiso   1.00
H335   H     0.45130   0.00610   0.19590   0.01267  Uiso   1.00
H336   H     0.37010   0.04150   0.22210   0.01267  Uiso   1.00
H337   H     0.39960   0.07200   0.21040   0.01267  Uiso   1.00
H338   H     0.37540   0.04380   0.26420   0.01267  Uiso   1.00
H339   H     0.16550   0.43510   0.43590   0.01267  Uiso   1.00
H340   H     0.27370   0.49070   0.28910   0.01267  Uiso   1.00
H341   H     0.19610   0.53950   0.31350   0.01267  Uiso   1.00
H342   H     0.26890   0.33650   0.48610   0.01267  Uiso   1.00
H343   H     0.22160   0.38120   0.48540   0.01267  Uiso   1.00
H344   H     0.31650   0.39050   0.43590   0.01267  Uiso   1.00
H345   H     0.28120   0.40140   0.48440   0.01267  Uiso   1.00
H346   H     0.26860   0.43500   0.43680   0.01267  Uiso   1.00
H347   H     0.24330   0.30190   0.45170   0.01267  Uiso   1.00
H348   H     0.19590   0.34670   0.45130   0.01267  Uiso   1.00
H349   H     0.22210   0.36630   0.37010   0.01267  Uiso   1.00
H350   H     0.21040   0.31800   0.39960   0.01267  Uiso   1.00
H351   H     0.26420   0.31660   0.37540   0.01267  Uiso   1.00
H352   H     0.43510   0.16550   0.96350   0.01267  Uiso   1.00
H353   H     0.49070   0.27370   0.94650   0.01267  Uiso   1.00
H354   H     0.53950   0.19610   0.95090   0.01267  Uiso   1.00
H355   H     0.33650   0.26890   0.90850   0.01267  Uiso   1.00
H356   H     0.38120   0.22160   0.91180   0.01267  Uiso   1.00
H357   H     0.39050   0.31650   0.85710   0.01267  Uiso   1.00
H358   H     0.40140   0.28120   0.83300   0.01267  Uiso   1.00
H359   H     0.43500   0.26860   0.85960   0.01267  Uiso   1.00
H360   H     0.30190   0.24330   0.00310   0.01267  Uiso   1.00
H361   H     0.34670   0.19590   0.00610   0.01267  Uiso   1.00
H362   H     0.36630   0.22210   0.04150   0.01267  Uiso   1.00
H363   H     0.31800   0.21040   0.07200   0.01267  Uiso   1.00
H364   H     0.31660   0.26420   0.04380   0.01267  Uiso   1.00
H365   H     0.43510   0.43590   0.16550   0.01267  Uiso   1.00
H366   H     0.49070   0.28910   0.27370   0.01267  Uiso   1.00
H367   H     0.53950   0.31350   0.19610   0.01267  Uiso   1.00
H368   H     0.33650   0.48610   0.26890   0.01267  Uiso   1.00
H369   H     0.38120   0.48540   0.22160   0.01267  Uiso   1.00
H370   H     0.39050   0.43590   0.31650   0.01267  Uiso   1.00
H371   H     0.40140   0.48440   0.28120   0.01267  Uiso   1.00
H372   H     0.43500   0.43680   0.26860   0.01267  Uiso   1.00
H373   H     0.30190   0.45170   0.24330   0.01267  Uiso   1.00
H374   H     0.34670   0.45130   0.19590   0.01267  Uiso   1.00
H375   H     0.36630   0.37010   0.22210   0.01267  Uiso   1.00
H376   H     0.31800   0.39960   0.21040   0.01267  Uiso   1.00
H377   H     0.31660   0.37540   0.26420   0.01267  Uiso   1.00
H378   H     0.16550   0.96350   0.43510   0.01267  Uiso   1.00
H379   H     0.27370   0.94650   0.49070   0.01267  Uiso   1.00
H380   H     0.19610   0.95090   0.53950   0.01267  Uiso   1.00
H381   H     0.26890   0.90850   0.33650   0.01267  Uiso   1.00
H382   H     0.22160   0.91180   0.38120   0.01267  Uiso   1.00
H383   H     0.31650   0.85710   0.39050   0.01267  Uiso   1.00
H384   H     0.28120   0.83300   0.40140   0.01267  Uiso   1.00
H385   H     0.26860   0.85960   0.43500   0.01267  Uiso   1.00
H386   H     0.24330   0.00310   0.30190   0.01267  Uiso   1.00
H387   H     0.19590   0.00610   0.34670   0.01267  Uiso   1.00
H388   H     0.22210   0.04150   0.36630   0.01267  Uiso   1.00
H389   H     0.21040   0.07200   0.31800   0.01267  Uiso   1.00
H390   H     0.26420   0.04380   0.31660   0.01267  Uiso   1.00
H391   H     0.43590   0.43510   0.96350   0.01267  Uiso   1.00
H392   H     0.28910   0.49070   0.94650   0.01267  Uiso   1.00
H393   H     0.31350   0.53950   0.95090   0.01267  Uiso   1.00
H394   H     0.48610   0.33650   0.90850   0.01267  Uiso   1.00
H395   H     0.48540   0.38120   0.91180   0.01267  Uiso   1.00
H396   H     0.43590   0.39050   0.85710   0.01267  Uiso   1.00
H397   H     0.48440   0.40140   0.83300   0.01267  Uiso   1.00
H398   H     0.43680   0.43500   0.85960   0.01267  Uiso   1.00
H399   H     0.45170   0.30190   0.00310   0.01267  Uiso   1.00
H400   H     0.45130   0.34670   0.00610   0.01267  Uiso   1.00
H401   H     0.37010   0.36630   0.04150   0.01267  Uiso   1.00
H402   H     0.39960   0.31800   0.07200   0.01267  Uiso   1.00
H403   H     0.37540   0.31660   0.04380   0.01267  Uiso   1.00
H404   H     0.96350   0.16550   0.43590   0.01267  Uiso   1.00
H405   H     0.94650   0.27370   0.28910   0.01267  Uiso   1.00
H406   H     0.95090   0.19610   0.31350   0.01267  Uiso   1.00
H407   H     0.90850   0.26890   0.48610   0.01267  Uiso   1.00
H408   H     0.91180   0.22160   0.48540   0.01267  Uiso   1.00
H409   H     0.85710   0.31650   0.43590   0.01267  Uiso   1.00
H410   H     0.83300   0.28120   0.48440   0.01267  Uiso   1.00
H411   H     0.85960   0.26860   0.43680   0.01267  Uiso   1.00
H412   H     0.00310   0.24330   0.45170   0.01267  Uiso   1.00
H413   H     0.00610   0.19590   0.45130   0.01267  Uiso   1.00
H414   H     0.04150   0.22210   0.37010   0.01267  Uiso   1.00
H415   H     0.07200   0.21040   0.39960   0.01267  Uiso   1.00
H416   H     0.04380   0.26420   0.37540   0.01267  Uiso   1.00
H417   H     0.16550   0.43590   0.96350   0.01267  Uiso   1.00
H418   H     0.27370   0.28910   0.94650   0.01267  Uiso   1.00
H419   H     0.19610   0.31350   0.95090   0.01267  Uiso   1.00
H420   H     0.26890   0.48610   0.90850   0.01267  Uiso   1.00
H421   H     0.22160   0.48540   0.91180   0.01267  Uiso   1.00
H422   H     0.31650   0.43590   0.85710   0.01267  Uiso   1.00
H423   H     0.28120   0.48440   0.83300   0.01267  Uiso   1.00
H424   H     0.26860   0.43680   0.85960   0.01267  Uiso   1.00
H425   H     0.24330   0.45170   0.00310   0.01267  Uiso   1.00
H426   H     0.19590   0.45130   0.00610   0.01267  Uiso   1.00
H427   H     0.22210   0.37010   0.04150   0.01267  Uiso   1.00
H428   H     0.21040   0.39960   0.07200   0.01267  Uiso   1.00
H429   H     0.26420   0.37540   0.04380   0.01267  Uiso   1.00
H430   H     0.43510   0.96350   0.43590   0.01267  Uiso   1.00
H431   H     0.49070   0.94650   0.28910   0.01267  Uiso   1.00
H432   H     0.53950   0.95090   0.31350   0.01267  Uiso   1.00
H433   H     0.33650   0.90850   0.48610   0.01267  Uiso   1.00
H434   H     0.38120   0.91180   0.48540   0.01267  Uiso   1.00
H435   H     0.39050   0.85710   0.43590   0.01267  Uiso   1.00
H436   H     0.40140   0.83300   0.48440   0.01267  Uiso   1.00
H437   H     0.43500   0.85960   0.43680   0.01267  Uiso   1.00
H438   H     0.30190   0.00310   0.45170   0.01267  Uiso   1.00
H439   H     0.34670   0.00610   0.45130   0.01267  Uiso   1.00
H440   H     0.36630   0.04150   0.37010   0.01267  Uiso   1.00
H441   H     0.31800   0.07200   0.39960   0.01267  Uiso   1.00
H442   H     0.31660   0.04380   0.37540   0.01267  Uiso   1.00
H443   H     0.96350   0.43510   0.16550   0.01267  Uiso   1.00
H444   H     0.94650   0.49070   0.27370   0.01267  Uiso   1.00
H445   H     0.95090   0.53950   0.19610   0.01267  Uiso   1.00
H446   H     0.90850   0.33650   0.26890   0.01267  Uiso   1.00
H447   H     0.91180   0.38120   0.22160   0.01267  Uiso   1.00
H448   H     0.85710   0.39050   0.31650   0.01267  Uiso   1.00
H449   H     0.83300   0.40140   0.28120   0.01267  Uiso   1.00
H450   H     0.85960   0.43500   0.26860   0.01267  Uiso   1.00
H451   H     0.00310   0.30190   0.24330   0.01267  Uiso   1.00
H452   H     0.00610   0.34670   0.19590   0.01267  Uiso   1.00
H453   H     0.04150   0.36630   0.22210   0.01267  Uiso   1.00
H454   H     0.07200   0.31800   0.21040   0.01267  Uiso   1.00
H455   H     0.04380   0.31660   0.26420   0.01267  Uiso   1.00
H456   H     0.43590   0.16550   0.43510   0.01267  Uiso   1.00
H457   H     0.28910   0.27370   0.49070   0.01267  Uiso   1.00
H458   H     0.31350   0.19610   0.53950   0.01267  Uiso   1.00
H459   H     0.48610   0.26890   0.33650   0.01267  Uiso   1.00
H460   H     0.48540   0.22160   0.38120   0.01267  Uiso   1.00
H461   H     0.43590   0.31650   0.39050   0.01267  Uiso   1.00
H462   H     0.48440   0.28120   0.40140   0.01267  Uiso   1.00
H463   H     0.43680   0.26860   0.43500   0.01267  Uiso   1.00
H464   H     0.45170   0.24330   0.30190   0.01267  Uiso   1.00
H465   H     0.45130   0.19590   0.34670   0.01267  Uiso   1.00
H466   H     0.37010   0.22210   0.36630   0.01267  Uiso   1.00
H467   H     0.39960   0.21040   0.31800   0.01267  Uiso   1.00
H468   H     0.37540   0.26420   0.31660   0.01267  Uiso   1.00
H469   H     0.03650   0.56410   0.56490   0.01267  Uiso   1.00
H470   H     0.05350   0.71090   0.50930   0.01267  Uiso   1.00
H471   H     0.04910   0.68650   0.46050   0.01267  Uiso   1.00
H472   H     0.09150   0.51390   0.66350   0.01267  Uiso   1.00
H473   H     0.08820   0.51460   0.61880   0.01267  Uiso   1.00
H474   H     0.14290   0.56410   0.60950   0.01267  Uiso   1.00
H475   H     0.16700   0.51560   0.59860   0.01267  Uiso   1.00
H476   H     0.14040   0.56320   0.56500   0.01267  Uiso   1.00
H477   H     0.99690   0.54830   0.69810   0.01267  Uiso   1.00
H478   H     0.99390   0.54870   0.65330   0.01267  Uiso   1.00
H479   H     0.95850   0.62990   0.63370   0.01267  Uiso   1.00
H480   H     0.92800   0.60040   0.68200   0.01267  Uiso   1.00
H481   H     0.95620   0.62460   0.68340   0.01267  Uiso   1.00
H482   H     0.56410   0.03650   0.83450   0.01267  Uiso   1.00
H483   H     0.71090   0.05350   0.72630   0.01267  Uiso   1.00
H484   H     0.68650   0.04910   0.80390   0.01267  Uiso   1.00
H485   H     0.51390   0.09150   0.73110   0.01267  Uiso   1.00
H486   H     0.51460   0.08820   0.77840   0.01267  Uiso   1.00
H487   H     0.56410   0.14290   0.68350   0.01267  Uiso   1.00
H488   H     0.51560   0.16700   0.71880   0.01267  Uiso   1.00
H489   H     0.56320   0.14040   0.73140   0.01267  Uiso   1.00
H490   H     0.54830   0.99690   0.75670   0.01267  Uiso   1.00
H491   H     0.54870   0.99390   0.80410   0.01267  Uiso   1.00
H492   H     0.62990   0.95850   0.77790   0.01267  Uiso   1.00
H493   H     0.60040   0.92800   0.78960   0.01267  Uiso   1.00
H494   H     0.62460   0.95620   0.73580   0.01267  Uiso   1.00
H495   H     0.83450   0.56490   0.56410   0.01267  Uiso   1.00
H496   H     0.72630   0.50930   0.71090   0.01267  Uiso   1.00
H497   H     0.80390   0.46050   0.68650   0.01267  Uiso   1.00
H498   H     0.73110   0.66350   0.51390   0.01267  Uiso   1.00
H499   H     0.77840   0.61880   0.51460   0.01267  Uiso   1.00
H500   H     0.68350   0.60950   0.56410   0.01267  Uiso   1.00
H501   H     0.71880   0.59860   0.51560   0.01267  Uiso   1.00
H502   H     0.73140   0.56500   0.56320   0.01267  Uiso   1.00
H503   H     0.75670   0.69810   0.54830   0.01267  Uiso   1.00
H504   H     0.80410   0.65330   0.54870   0.01267  Uiso   1.00
H505   H     0.77790   0.63370   0.62990   0.01267  Uiso   1.00
H506   H     0.78960   0.68200   0.60040   0.01267  Uiso   1.00
H507   H     0.73580   0.68340   0.62460   0.01267  Uiso   1.00
H508   H     0.56490   0.83450   0.03650   0.01267  Uiso   1.00
H509   H     0.50930   0.72630   0.05350   0.01267  Uiso   1.00
H510   H     0.46050   0.80390   0.04910   0.01267  Uiso   1.00
H511   H     0.66350   0.73110   0.09150   0.01267  Uiso   1.00
H512   H     0.61880   0.77840   0.08820   0.01267  Uiso   1.00
H513   H     0.60950   0.68350   0.14290   0.01267  Uiso   1.00
H514   H     0.59860   0.71880   0.16700   0.01267  Uiso   1.00
H515   H     0.56500   0.73140   0.14040   0.01267  Uiso   1.00
H516   H     0.69810   0.75670   0.99690   0.01267  Uiso   1.00
H517   H     0.65330   0.80410   0.99390   0.01267  Uiso   1.00
H518   H     0.63370   0.77790   0.95850   0.01267  Uiso   1.00
H519   H     0.68200   0.78960   0.92800   0.01267  Uiso   1.00
H520   H     0.68340   0.73580   0.95620   0.01267  Uiso   1.00
H521   H     0.56490   0.56410   0.83450   0.01267  Uiso   1.00
H522   H     0.50930   0.71090   0.72630   0.01267  Uiso   1.00
H523   H     0.46050   0.68650   0.80390   0.01267  Uiso   1.00
H524   H     0.66350   0.51390   0.73110   0.01267  Uiso   1.00
H525   H     0.61880   0.51460   0.77840   0.01267  Uiso   1.00
H526   H     0.60950   0.56410   0.68350   0.01267  Uiso   1.00
H527   H     0.59860   0.51560   0.71880   0.01267  Uiso   1.00
H528   H     0.56500   0.56320   0.73140   0.01267  Uiso   1.00
H529   H     0.69810   0.54830   0.75670   0.01267  Uiso   1.00
H530   H     0.65330   0.54870   0.80410   0.01267  Uiso   1.00
H531   H     0.63370   0.62990   0.77790   0.01267  Uiso   1.00
H532   H     0.68200   0.60040   0.78960   0.01267  Uiso   1.00
H533   H     0.68340   0.62460   0.73580   0.01267  Uiso   1.00
H534   H     0.83450   0.03650   0.56490   0.01267  Uiso   1.00
H535   H     0.72630   0.05350   0.50930   0.01267  Uiso   1.00
H536   H     0.80390   0.04910   0.46050   0.01267  Uiso   1.00
H537   H     0.73110   0.09150   0.66350   0.01267  Uiso   1.00
H538   H     0.77840   0.08820   0.61880   0.01267  Uiso   1.00
H539   H     0.68350   0.14290   0.60950   0.01267  Uiso   1.00
H540   H     0.71880   0.16700   0.59860   0.01267  Uiso   1.00
H541   H     0.73140   0.14040   0.56500   0.01267  Uiso   1.00
H542   H     0.75670   0.99690   0.69810   0.01267  Uiso   1.00
H543   H     0.80410   0.99390   0.65330   0.01267  Uiso   1.00
H544   H     0.77790   0.95850   0.63370   0.01267  Uiso   1.00
H545   H     0.78960   0.92800   0.68200   0.01267  Uiso   1.00
H546   H     0.73580   0.95620   0.68340   0.01267  Uiso   1.00
H547   H     0.56410   0.56490   0.03650   0.01267  Uiso   1.00
H548   H     0.71090   0.50930   0.05350   0.01267  Uiso   1.00
H549   H     0.68650   0.46050   0.04910   0.01267  Uiso   1.00
H550   H     0.51390   0.66350   0.09150   0.01267  Uiso   1.00
H551   H     0.51460   0.61880   0.08820   0.01267  Uiso   1.00
H552   H     0.56410   0.60950   0.14290   0.01267  Uiso   1.00
H553   H     0.51560   0.59860   0.16700   0.01267  Uiso   1.00
H554   H     0.56320   0.56500   0.14040   0.01267  Uiso   1.00
H555   H     0.54830   0.69810   0.99690   0.01267  Uiso   1.00
H556   H     0.54870   0.65330   0.99390   0.01267  Uiso   1.00
H557   H     0.62990   0.63370   0.95850   0.01267  Uiso   1.00
H558   H     0.60040   0.68200   0.92800   0.01267  Uiso   1.00
H559   H     0.62460   0.68340   0.95620   0.01267  Uiso   1.00
H560   H     0.03650   0.83450   0.56410   0.01267  Uiso   1.00
H561   H     0.05350   0.72630   0.71090   0.01267  Uiso   1.00
H562   H     0.04910   0.80390   0.68650   0.01267  Uiso   1.00
H563   H     0.09150   0.73110   0.51390   0.01267  Uiso   1.00
H564   H     0.08820   0.77840   0.51460   0.01267  Uiso   1.00
H565   H     0.14290   0.68350   0.56410   0.01267  Uiso   1.00
H566   H     0.16700   0.71880   0.51560   0.01267  Uiso   1.00
H567   H     0.14040   0.73140   0.56320   0.01267  Uiso   1.00
H568   H     0.99690   0.75670   0.54830   0.01267  Uiso   1.00
H569   H     0.99390   0.80410   0.54870   0.01267  Uiso   1.00
H570   H     0.95850   0.77790   0.62990   0.01267  Uiso   1.00
H571   H     0.92800   0.78960   0.60040   0.01267  Uiso   1.00
H572   H     0.95620   0.73580   0.62460   0.01267  Uiso   1.00
H573   H     0.83450   0.56410   0.03650   0.01267  Uiso   1.00
H574   H     0.72630   0.71090   0.05350   0.01267  Uiso   1.00
H575   H     0.80390   0.68650   0.04910   0.01267  Uiso   1.00
H576   H     0.73110   0.51390   0.09150   0.01267  Uiso   1.00
H577   H     0.77840   0.51460   0.08820   0.01267  Uiso   1.00
H578   H     0.68350   0.56410   0.14290   0.01267  Uiso   1.00
H579   H     0.71880   0.51560   0.16700   0.01267  Uiso   1.00
H580   H     0.73140   0.56320   0.14040   0.01267  Uiso   1.00
H581   H     0.75670   0.54830   0.99690   0.01267  Uiso   1.00
H582   H     0.80410   0.54870   0.99390   0.01267  Uiso   1.00
H583   H     0.77790   0.62990   0.95850   0.01267  Uiso   1.00
H584   H     0.78960   0.60040   0.92800   0.01267  Uiso   1.00
H585   H     0.73580   0.62460   0.95620   0.01267  Uiso   1.00
H586   H     0.56490   0.03650   0.56410   0.01267  Uiso   1.00
H587   H     0.50930   0.05350   0.71090   0.01267  Uiso   1.00
H588   H     0.46050   0.04910   0.68650   0.01267  Uiso   1.00
H589   H     0.66350   0.09150   0.51390   0.01267  Uiso   1.00
H590   H     0.61880   0.08820   0.51460   0.01267  Uiso   1.00
H591   H     0.60950   0.14290   0.56410   0.01267  Uiso   1.00
H592   H     0.59860   0.16700   0.51560   0.01267  Uiso   1.00
H593   H     0.56500   0.14040   0.56320   0.01267  Uiso   1.00
H594   H     0.69810   0.99690   0.54830   0.01267  Uiso   1.00
H595   H     0.65330   0.99390   0.54870   0.01267  Uiso   1.00
H596   H     0.63370   0.95850   0.62990   0.01267  Uiso   1.00
H597   H     0.68200   0.92800   0.60040   0.01267  Uiso   1.00
H598   H     0.68340   0.95620   0.62460   0.01267  Uiso   1.00
H599   H     0.03650   0.56490   0.83450   0.01267  Uiso   1.00
H600   H     0.05350   0.50930   0.72630   0.01267  Uiso   1.00
H601   H     0.04910   0.46050   0.80390   0.01267  Uiso   1.00
H602   H     0.09150   0.66350   0.73110   0.01267  Uiso   1.00
H603   H     0.08820   0.61880   0.77840   0.01267  Uiso   1.00
H604   H     0.14290   0.60950   0.68350   0.01267  Uiso   1.00
H605   H     0.16700   0.59860   0.71880   0.01267  Uiso   1.00
H606   H     0.14040   0.56500   0.73140   0.01267  Uiso   1.00
H607   H     0.99690   0.69810   0.75670   0.01267  Uiso   1.00
H608   H     0.99390   0.65330   0.80410   0.01267  Uiso   1.00
H609   H     0.95850   0.63370   0.77790   0.01267  Uiso   1.00
H610   H     0.92800   0.68200   0.78960   0.01267  Uiso   1.00
H611   H     0.95620   0.68340   0.73580   0.01267  Uiso   1.00
H612   H     0.56410   0.83450   0.56490   0.01267  Uiso   1.00
H613   H     0.71090   0.72630   0.50930   0.01267  Uiso   1.00
H614   H     0.68650   0.80390   0.46050   0.01267  Uiso   1.00
H615   H     0.51390   0.73110   0.66350   0.01267  Uiso   1.00
H616   H     0.51460   0.77840   0.61880   0.01267  Uiso   1.00
H617   H     0.56410   0.68350   0.60950   0.01267  Uiso   1.00
H618   H     0.51560   0.71880   0.59860   0.01267  Uiso   1.00
H619   H     0.56320   0.73140   0.56500   0.01267  Uiso   1.00
H620   H     0.54830   0.75670   0.69810   0.01267  Uiso   1.00
H621   H     0.54870   0.80410   0.65330   0.01267  Uiso   1.00
H622   H     0.62990   0.77790   0.63370   0.01267  Uiso   1.00
H623   H     0.60040   0.78960   0.68200   0.01267  Uiso   1.00
H624   H     0.62460   0.73580   0.68340   0.01267  Uiso   1.00
Pb13   Pb    0.97268   0.41468   0.58532   0.01267  Uiso   1.00
Pb14   Pb    0.41468   0.97268   0.02732   0.01267  Uiso   1.00
Pb15   Pb    0.02732   0.58532   0.41468   0.01267  Uiso   1.00
Pb16   Pb    0.58532   0.02732   0.97268   0.01267  Uiso   1.00
Pb17   Pb    0.58532   0.41468   0.02732   0.01267  Uiso   1.00
Pb18   Pb    0.02732   0.97268   0.58532   0.01267  Uiso   1.00
Pb19   Pb    0.41468   0.58532   0.97268   0.01267  Uiso   1.00
Pb20   Pb    0.97268   0.02732   0.41468   0.01267  Uiso   1.00
Pb21   Pb    0.02732   0.41468   0.97268   0.01267  Uiso   1.00
Pb22   Pb    0.58532   0.97268   0.41468   0.01267  Uiso   1.00
Pb23   Pb    0.97268   0.58532   0.02732   0.01267  Uiso   1.00
Pb24   Pb    0.41468   0.02732   0.58532   0.01267  Uiso   1.00
C337   C     0.95925   0.39255   0.52383   0.01267  Uiso   1.00
C338   C     0.95513   0.37761   0.49301   0.01267  Uiso   1.00
C339   C     0.95869   0.40671   0.44671   0.01267  Uiso   1.00
C340   C     0.95511   0.39329   0.41691   0.01267  Uiso   1.00
C341   C     0.95226   0.34960   0.43180   0.01267  Uiso   1.00
C342   C     0.94963   0.31903   0.47927   0.01267  Uiso   1.00
C343   C     0.95176   0.33412   0.50804   0.01267  Uiso   1.00
C344   C     0.95445   0.42175   0.36691   0.01267  Uiso   1.00
C345   C     0.95168   0.38702   0.35492   0.01267  Uiso   1.00
C346   C     0.95192   0.34468   0.39170   0.01267  Uiso   1.00
C347   C     0.90930   0.46650   0.36910   0.01267  Uiso   1.00
C348   C     0.85980   0.45480   0.40220   0.01267  Uiso   1.00
C349   C     0.00350   0.43230   0.33470   0.01267  Uiso   1.00
C350   C     0.04310   0.39130   0.33390   0.01267  Uiso   1.00
C351   C     0.39255   0.95925   0.12437   0.01267  Uiso   1.00
C352   C     0.37761   0.95513   0.17425   0.01267  Uiso   1.00
C353   C     0.40671   0.95869   0.18789   0.01267  Uiso   1.00
C354   C     0.39329   0.95511   0.23469   0.01267  Uiso   1.00
C355   C     0.34960   0.95226   0.26634   0.01267  Uiso   1.00
C356   C     0.31903   0.94963   0.25207   0.01267  Uiso   1.00
C357   C     0.33412   0.95176   0.20608   0.01267  Uiso   1.00
C358   C     0.42175   0.95445   0.25689   0.01267  Uiso   1.00
C359   C     0.38702   0.95168   0.30638   0.01267  Uiso   1.00
C360   C     0.34468   0.95192   0.31170   0.01267  Uiso   1.00
C361   C     0.46650   0.90930   0.25510   0.01267  Uiso   1.00
C362   C     0.45480   0.85980   0.28320   0.01267  Uiso   1.00
C363   C     0.43230   0.00350   0.22950   0.01267  Uiso   1.00
C364   C     0.39130   0.04310   0.23170   0.01267  Uiso   1.00
C365   C     0.12437   0.52383   0.39255   0.01267  Uiso   1.00
C366   C     0.17425   0.49301   0.37761   0.01267  Uiso   1.00
C367   C     0.18789   0.44671   0.40671   0.01267  Uiso   1.00
C368   C     0.23469   0.41691   0.39329   0.01267  Uiso   1.00
C369   C     0.26634   0.43180   0.34960   0.01267  Uiso   1.00
C370   C     0.25207   0.47927   0.31903   0.01267  Uiso   1.00
C371   C     0.20608   0.50804   0.33412   0.01267  Uiso   1.00
C372   C     0.25689   0.36691   0.42175   0.01267  Uiso   1.00
C373   C     0.30638   0.35492   0.38702   0.01267  Uiso   1.00
C374   C     0.31170   0.39170   0.34468   0.01267  Uiso   1.00
C375   C     0.25510   0.36910   0.46650   0.01267  Uiso   1.00
C376   C     0.28320   0.40220   0.45480   0.01267  Uiso   1.00
C377   C     0.22950   0.33470   0.43230   0.01267  Uiso   1.00
C378   C     0.23170   0.33390   0.39130   0.01267  Uiso   1.00
C379   C     0.52383   0.12437   0.95925   0.01267  Uiso   1.00
C380   C     0.49301   0.17425   0.95513   0.01267  Uiso   1.00
C381   C     0.44671   0.18789   0.95869   0.01267  Uiso   1.00
C382   C     0.41691   0.23469   0.95511   0.01267  Uiso   1.00
C383   C     0.43180   0.26634   0.95226   0.01267  Uiso   1.00
C384   C     0.47927   0.25207   0.94963   0.01267  Uiso   1.00
C385   C     0.50804   0.20608   0.95176   0.01267  Uiso   1.00
C386   C     0.36691   0.25689   0.95445   0.01267  Uiso   1.00
C387   C     0.35492   0.30638   0.95168   0.01267  Uiso   1.00
C388   C     0.39170   0.31170   0.95192   0.01267  Uiso   1.00
C389   C     0.36910   0.25510   0.90930   0.01267  Uiso   1.00
C390   C     0.40220   0.28320   0.85980   0.01267  Uiso   1.00
C391   C     0.33470   0.22950   0.00350   0.01267  Uiso   1.00
C392   C     0.33390   0.23170   0.04310   0.01267  Uiso   1.00
C393   C     0.52383   0.39255   0.12437   0.01267  Uiso   1.00
C394   C     0.49301   0.37761   0.17425   0.01267  Uiso   1.00
C395   C     0.44671   0.40671   0.18789   0.01267  Uiso   1.00
C396   C     0.41691   0.39329   0.23469   0.01267  Uiso   1.00
C397   C     0.43180   0.34960   0.26634   0.01267  Uiso   1.00
C398   C     0.47927   0.31903   0.25207   0.01267  Uiso   1.00
C399   C     0.50804   0.33412   0.20608   0.01267  Uiso   1.00
C400   C     0.36691   0.42175   0.25689   0.01267  Uiso   1.00
C401   C     0.35492   0.38702   0.30638   0.01267  Uiso   1.00
C402   C     0.39170   0.34468   0.31170   0.01267  Uiso   1.00
C403   C     0.36910   0.46650   0.25510   0.01267  Uiso   1.00
C404   C     0.40220   0.45480   0.28320   0.01267  Uiso   1.00
C405   C     0.33470   0.43230   0.22950   0.01267  Uiso   1.00
C406   C     0.33390   0.39130   0.23170   0.01267  Uiso   1.00
C407   C     0.12437   0.95925   0.52383   0.01267  Uiso   1.00
C408   C     0.17425   0.95513   0.49301   0.01267  Uiso   1.00
C409   C     0.18789   0.95869   0.44671   0.01267  Uiso   1.00
C410   C     0.23469   0.95511   0.41691   0.01267  Uiso   1.00
C411   C     0.26634   0.95226   0.43180   0.01267  Uiso   1.00
C412   C     0.25207   0.94963   0.47927   0.01267  Uiso   1.00
C413   C     0.20608   0.95176   0.50804   0.01267  Uiso   1.00
C414   C     0.25689   0.95445   0.36691   0.01267  Uiso   1.00
C415   C     0.30638   0.95168   0.35492   0.01267  Uiso   1.00
C416   C     0.31170   0.95192   0.39170   0.01267  Uiso   1.00
C417   C     0.25510   0.90930   0.36910   0.01267  Uiso   1.00
C418   C     0.28320   0.85980   0.40220   0.01267  Uiso   1.00
C419   C     0.22950   0.00350   0.33470   0.01267  Uiso   1.00
C420   C     0.23170   0.04310   0.33390   0.01267  Uiso   1.00
C421   C     0.39255   0.52383   0.95925   0.01267  Uiso   1.00
C422   C     0.37761   0.49301   0.95513   0.01267  Uiso   1.00
C423   C     0.40671   0.44671   0.95869   0.01267  Uiso   1.00
C424   C     0.39329   0.41691   0.95511   0.01267  Uiso   1.00
C425   C     0.34960   0.43180   0.95226   0.01267  Uiso   1.00
C426   C     0.31903   0.47927   0.94963   0.01267  Uiso   1.00
C427   C     0.33412   0.50804   0.95176   0.01267  Uiso   1.00
C428   C     0.42175   0.36691   0.95445   0.01267  Uiso   1.00
C429   C     0.38702   0.35492   0.95168   0.01267  Uiso   1.00
C430   C     0.34468   0.39170   0.95192   0.01267  Uiso   1.00
C431   C     0.46650   0.36910   0.90930   0.01267  Uiso   1.00
C432   C     0.45480   0.40220   0.85980   0.01267  Uiso   1.00
C433   C     0.43230   0.33470   0.00350   0.01267  Uiso   1.00
C434   C     0.39130   0.33390   0.04310   0.01267  Uiso   1.00
C435   C     0.95925   0.12437   0.39255   0.01267  Uiso   1.00
C436   C     0.95513   0.17425   0.37761   0.01267  Uiso   1.00
C437   C     0.95869   0.18789   0.40671   0.01267  Uiso   1.00
C438   C     0.95511   0.23469   0.39329   0.01267  Uiso   1.00
C439   C     0.95226   0.26634   0.34960   0.01267  Uiso   1.00
C440   C     0.94963   0.25207   0.31903   0.01267  Uiso   1.00
C441   C     0.95176   0.20608   0.33412   0.01267  Uiso   1.00
C442   C     0.95445   0.25689   0.42175   0.01267  Uiso   1.00
C443   C     0.95168   0.30638   0.38702   0.01267  Uiso   1.00
C444   C     0.95192   0.31170   0.34468   0.01267  Uiso   1.00
C445   C     0.90930   0.25510   0.46650   0.01267  Uiso   1.00
C446   C     0.85980   0.28320   0.45480   0.01267  Uiso   1.00
C447   C     0.00350   0.22950   0.43230   0.01267  Uiso   1.00
C448   C     0.04310   0.23170   0.39130   0.01267  Uiso   1.00
C449   C     0.12437   0.39255   0.95925   0.01267  Uiso   1.00
C450   C     0.17425   0.37761   0.95513   0.01267  Uiso   1.00
C451   C     0.18789   0.40671   0.95869   0.01267  Uiso   1.00
C452   C     0.23469   0.39329   0.95511   0.01267  Uiso   1.00
C453   C     0.26634   0.34960   0.95226   0.01267  Uiso   1.00
C454   C     0.25207   0.31903   0.94963   0.01267  Uiso   1.00
C455   C     0.20608   0.33412   0.95176   0.01267  Uiso   1.00
C456   C     0.25689   0.42175   0.95445   0.01267  Uiso   1.00
C457   C     0.30638   0.38702   0.95168   0.01267  Uiso   1.00
C458   C     0.31170   0.34468   0.95192   0.01267  Uiso   1.00
C459   C     0.25510   0.46650   0.90930   0.01267  Uiso   1.00
C460   C     0.28320   0.45480   0.85980   0.01267  Uiso   1.00
C461   C     0.22950   0.43230   0.00350   0.01267  Uiso   1.00
C462   C     0.23170   0.39130   0.04310   0.01267  Uiso   1.00
C463   C     0.52383   0.95925   0.39255   0.01267  Uiso   1.00
C464   C     0.49301   0.95513   0.37761   0.01267  Uiso   1.00
C465   C     0.44671   0.95869   0.40671   0.01267  Uiso   1.00
C466   C     0.41691   0.95511   0.39329   0.01267  Uiso   1.00
C467   C     0.43180   0.95226   0.34960   0.01267  Uiso   1.00
C468   C     0.47927   0.94963   0.31903   0.01267  Uiso   1.00
C469   C     0.50804   0.95176   0.33412   0.01267  Uiso   1.00
C470   C     0.36691   0.95445   0.42175   0.01267  Uiso   1.00
C471   C     0.35492   0.95168   0.38702   0.01267  Uiso   1.00
C472   C     0.39170   0.95192   0.34468   0.01267  Uiso   1.00
C473   C     0.36910   0.90930   0.46650   0.01267  Uiso   1.00
C474   C     0.40220   0.85980   0.45480   0.01267  Uiso   1.00
C475   C     0.33470   0.00350   0.43230   0.01267  Uiso   1.00
C476   C     0.33390   0.04310   0.39130   0.01267  Uiso   1.00
C477   C     0.95925   0.52383   0.12437   0.01267  Uiso   1.00
C478   C     0.95513   0.49301   0.17425   0.01267  Uiso   1.00
C479   C     0.95869   0.44671   0.18789   0.01267  Uiso   1.00
C480   C     0.95511   0.41691   0.23469   0.01267  Uiso   1.00
C481   C     0.95226   0.43180   0.26634   0.01267  Uiso   1.00
C482   C     0.94963   0.47927   0.25207   0.01267  Uiso   1.00
C483   C     0.95176   0.50804   0.20608   0.01267  Uiso   1.00
C484   C     0.95445   0.36691   0.25689   0.01267  Uiso   1.00
C485   C     0.95168   0.35492   0.30638   0.01267  Uiso   1.00
C486   C     0.95192   0.39170   0.31170   0.01267  Uiso   1.00
C487   C     0.90930   0.36910   0.25510   0.01267  Uiso   1.00
C488   C     0.85980   0.40220   0.28320   0.01267  Uiso   1.00
C489   C     0.00350   0.33470   0.22950   0.01267  Uiso   1.00
C490   C     0.04310   0.33390   0.23170   0.01267  Uiso   1.00
C491   C     0.39255   0.12437   0.52383   0.01267  Uiso   1.00
C492   C     0.37761   0.17425   0.49301   0.01267  Uiso   1.00
C493   C     0.40671   0.18789   0.44671   0.01267  Uiso   1.00
C494   C     0.39329   0.23469   0.41691   0.01267  Uiso   1.00
C495   C     0.34960   0.26634   0.43180   0.01267  Uiso   1.00
C496   C     0.31903   0.25207   0.47927   0.01267  Uiso   1.00
C497   C     0.33412   0.20608   0.50804   0.01267  Uiso   1.00
C498   C     0.42175   0.25689   0.36691   0.01267  Uiso   1.00
C499   C     0.38702   0.30638   0.35492   0.01267  Uiso   1.00
C500   C     0.34468   0.31170   0.39170   0.01267  Uiso   1.00
C501   C     0.46650   0.25510   0.36910   0.01267  Uiso   1.00
C502   C     0.45480   0.28320   0.40220   0.01267  Uiso   1.00
C503   C     0.43230   0.22950   0.33470   0.01267  Uiso   1.00
C504   C     0.39130   0.23170   0.33390   0.01267  Uiso   1.00
C505   C     0.04075   0.60745   0.47617   0.01267  Uiso   1.00
C506   C     0.04487   0.62239   0.50699   0.01267  Uiso   1.00
C507   C     0.04131   0.59329   0.55329   0.01267  Uiso   1.00
C508   C     0.04489   0.60671   0.58309   0.01267  Uiso   1.00
C509   C     0.04774   0.65040   0.56820   0.01267  Uiso   1.00
C510   C     0.05037   0.68097   0.52073   0.01267  Uiso   1.00
C511   C     0.04824   0.66588   0.49196   0.01267  Uiso   1.00
C512   C     0.04555   0.57825   0.63309   0.01267  Uiso   1.00
C513   C     0.04832   0.61298   0.64508   0.01267  Uiso   1.00
C514   C     0.04808   0.65532   0.60830   0.01267  Uiso   1.00
C515   C     0.09070   0.53350   0.63090   0.01267  Uiso   1.00
C516   C     0.14020   0.54520   0.59780   0.01267  Uiso   1.00
C517   C     0.99650   0.56770   0.66530   0.01267  Uiso   1.00
C518   C     0.95690   0.60870   0.66610   0.01267  Uiso   1.00
C519   C     0.60745   0.04075   0.87563   0.01267  Uiso   1.00
C520   C     0.62239   0.04487   0.82575   0.01267  Uiso   1.00
C521   C     0.59329   0.04131   0.81211   0.01267  Uiso   1.00
C522   C     0.60671   0.04489   0.76531   0.01267  Uiso   1.00
C523   C     0.65040   0.04774   0.73366   0.01267  Uiso   1.00
C524   C     0.68097   0.05037   0.74793   0.01267  Uiso   1.00
C525   C     0.66588   0.04824   0.79392   0.01267  Uiso   1.00
C526   C     0.57825   0.04555   0.74311   0.01267  Uiso   1.00
C527   C     0.61298   0.04832   0.69362   0.01267  Uiso   1.00
C528   C     0.65532   0.04808   0.68830   0.01267  Uiso   1.00
C529   C     0.53350   0.09070   0.74490   0.01267  Uiso   1.00
C530   C     0.54520   0.14020   0.71680   0.01267  Uiso   1.00
C531   C     0.56770   0.99650   0.77050   0.01267  Uiso   1.00
C532   C     0.60870   0.95690   0.76830   0.01267  Uiso   1.00
C533   C     0.87563   0.47617   0.60745   0.01267  Uiso   1.00
C534   C     0.82575   0.50699   0.62239   0.01267  Uiso   1.00
C535   C     0.81211   0.55329   0.59329   0.01267  Uiso   1.00
C536   C     0.76531   0.58309   0.60671   0.01267  Uiso   1.00
C537   C     0.73366   0.56820   0.65040   0.01267  Uiso   1.00
C538   C     0.74793   0.52073   0.68097   0.01267  Uiso   1.00
C539   C     0.79392   0.49196   0.66588   0.01267  Uiso   1.00
C540   C     0.74311   0.63309   0.57825   0.01267  Uiso   1.00
C541   C     0.69362   0.64508   0.61298   0.01267  Uiso   1.00
C542   C     0.68830   0.60830   0.65532   0.01267  Uiso   1.00
C543   C     0.74490   0.63090   0.53350   0.01267  Uiso   1.00
C544   C     0.71680   0.59780   0.54520   0.01267  Uiso   1.00
C545   C     0.77050   0.66530   0.56770   0.01267  Uiso   1.00
C546   C     0.76830   0.66610   0.60870   0.01267  Uiso   1.00
C547   C     0.47617   0.87563   0.04075   0.01267  Uiso   1.00
C548   C     0.50699   0.82575   0.04487   0.01267  Uiso   1.00
C549   C     0.55329   0.81211   0.04131   0.01267  Uiso   1.00
C550   C     0.58309   0.76531   0.04489   0.01267  Uiso   1.00
C551   C     0.56820   0.73366   0.04774   0.01267  Uiso   1.00
C552   C     0.52073   0.74793   0.05037   0.01267  Uiso   1.00
C553   C     0.49196   0.79392   0.04824   0.01267  Uiso   1.00
C554   C     0.63309   0.74311   0.04555   0.01267  Uiso   1.00
C555   C     0.64508   0.69362   0.04832   0.01267  Uiso   1.00
C556   C     0.60830   0.68830   0.04808   0.01267  Uiso   1.00
C557   C     0.63090   0.74490   0.09070   0.01267  Uiso   1.00
C558   C     0.59780   0.71680   0.14020   0.01267  Uiso   1.00
C559   C     0.66530   0.77050   0.99650   0.01267  Uiso   1.00
C560   C     0.66610   0.76830   0.95690   0.01267  Uiso   1.00
C561   C     0.47617   0.60745   0.87563   0.01267  Uiso   1.00
C562   C     0.50699   0.62239   0.82575   0.01267  Uiso   1.00
C563   C     0.55329   0.59329   0.81211   0.01267  Uiso   1.00
C564   C     0.58309   0.60671   0.76531   0.01267  Uiso   1.00
C565   C     0.56820   0.65040   0.73366   0.01267  Uiso   1.00
C566   C     0.52073   0.68097   0.74793   0.01267  Uiso   1.00
C567   C     0.49196   0.66588   0.79392   0.01267  Uiso   1.00
C568   C     0.63309   0.57825   0.74311   0.01267  Uiso   1.00
C569   C     0.64508   0.61298   0.69362   0.01267  Uiso   1.00
C570   C     0.60830   0.65532   0.68830   0.01267  Uiso   1.00
C571   C     0.63090   0.53350   0.74490   0.01267  Uiso   1.00
C572   C     0.59780   0.54520   0.71680   0.01267  Uiso   1.00
C573   C     0.66530   0.56770   0.77050   0.01267  Uiso   1.00
C574   C     0.66610   0.60870   0.76830   0.01267  Uiso   1.00
C575   C     0.87563   0.04075   0.47617   0.01267  Uiso   1.00
C576   C     0.82575   0.04487   0.50699   0.01267  Uiso   1.00
C577   C     0.81211   0.04131   0.55329   0.01267  Uiso   1.00
C578   C     0.76531   0.04489   0.58309   0.01267  Uiso   1.00
C579   C     0.73366   0.04774   0.56820   0.01267  Uiso   1.00
C580   C     0.74793   0.05037   0.52073   0.01267  Uiso   1.00
C581   C     0.79392   0.04824   0.49196   0.01267  Uiso   1.00
C582   C     0.74311   0.04555   0.63309   0.01267  Uiso   1.00
C583   C     0.69362   0.04832   0.64508   0.01267  Uiso   1.00
C584   C     0.68830   0.04808   0.60830   0.01267  Uiso   1.00
C585   C     0.74490   0.09070   0.63090   0.01267  Uiso   1.00
C586   C     0.71680   0.14020   0.59780   0.01267  Uiso   1.00
C587   C     0.77050   0.99650   0.66530   0.01267  Uiso   1.00
C588   C     0.76830   0.95690   0.66610   0.01267  Uiso   1.00
C589   C     0.60745   0.47617   0.04075   0.01267  Uiso   1.00
C590   C     0.62239   0.50699   0.04487   0.01267  Uiso   1.00
C591   C     0.59329   0.55329   0.04131   0.01267  Uiso   1.00
C592   C     0.60671   0.58309   0.04489   0.01267  Uiso   1.00
C593   C     0.65040   0.56820   0.04774   0.01267  Uiso   1.00
C594   C     0.68097   0.52073   0.05037   0.01267  Uiso   1.00
C595   C     0.66588   0.49196   0.04824   0.01267  Uiso   1.00
C596   C     0.57825   0.63309   0.04555   0.01267  Uiso   1.00
C597   C     0.61298   0.64508   0.04832   0.01267  Uiso   1.00
C598   C     0.65532   0.60830   0.04808   0.01267  Uiso   1.00
C599   C     0.53350   0.63090   0.09070   0.01267  Uiso   1.00
C600   C     0.54520   0.59780   0.14020   0.01267  Uiso   1.00
C601   C     0.56770   0.66530   0.99650   0.01267  Uiso   1.00
C602   C     0.60870   0.66610   0.95690   0.01267  Uiso   1.00
C603   C     0.04075   0.87563   0.60745   0.01267  Uiso   1.00
C604   C     0.04487   0.82575   0.62239   0.01267  Uiso   1.00
C605   C     0.04131   0.81211   0.59329   0.01267  Uiso   1.00
C606   C     0.04489   0.76531   0.60671   0.01267  Uiso   1.00
C607   C     0.04774   0.73366   0.65040   0.01267  Uiso   1.00
C608   C     0.05037   0.74793   0.68097   0.01267  Uiso   1.00
C609   C     0.04824   0.79392   0.66588   0.01267  Uiso   1.00
C610   C     0.04555   0.74311   0.57825   0.01267  Uiso   1.00
C611   C     0.04832   0.69362   0.61298   0.01267  Uiso   1.00
C612   C     0.04808   0.68830   0.65532   0.01267  Uiso   1.00
C613   C     0.09070   0.74490   0.53350   0.01267  Uiso   1.00
C614   C     0.14020   0.71680   0.54520   0.01267  Uiso   1.00
C615   C     0.99650   0.77050   0.56770   0.01267  Uiso   1.00
C616   C     0.95690   0.76830   0.60870   0.01267  Uiso   1.00
C617   C     0.87563   0.60745   0.04075   0.01267  Uiso   1.00
C618   C     0.82575   0.62239   0.04487   0.01267  Uiso   1.00
C619   C     0.81211   0.59329   0.04131   0.01267  Uiso   1.00
C620   C     0.76531   0.60671   0.04489   0.01267  Uiso   1.00
C621   C     0.73366   0.65040   0.04774   0.01267  Uiso   1.00
C622   C     0.74793   0.68097   0.05037   0.01267  Uiso   1.00
C623   C     0.79392   0.66588   0.04824   0.01267  Uiso   1.00
C624   C     0.74311   0.57825   0.04555   0.01267  Uiso   1.00
C625   C     0.69362   0.61298   0.04832   0.01267  Uiso   1.00
C626   C     0.68830   0.65532   0.04808   0.01267  Uiso   1.00
C627   C     0.74490   0.53350   0.09070   0.01267  Uiso   1.00
C628   C     0.71680   0.54520   0.14020   0.01267  Uiso   1.00
C629   C     0.77050   0.56770   0.99650   0.01267  Uiso   1.00
C630   C     0.76830   0.60870   0.95690   0.01267  Uiso   1.00
C631   C     0.47617   0.04075   0.60745   0.01267  Uiso   1.00
C632   C     0.50699   0.04487   0.62239   0.01267  Uiso   1.00
C633   C     0.55329   0.04131   0.59329   0.01267  Uiso   1.00
C634   C     0.58309   0.04489   0.60671   0.01267  Uiso   1.00
C635   C     0.56820   0.04774   0.65040   0.01267  Uiso   1.00
C636   C     0.52073   0.05037   0.68097   0.01267  Uiso   1.00
C637   C     0.49196   0.04824   0.66588   0.01267  Uiso   1.00
C638   C     0.63309   0.04555   0.57825   0.01267  Uiso   1.00
C639   C     0.64508   0.04832   0.61298   0.01267  Uiso   1.00
C640   C     0.60830   0.04808   0.65532   0.01267  Uiso   1.00
C641   C     0.63090   0.09070   0.53350   0.01267  Uiso   1.00
C642   C     0.59780   0.14020   0.54520   0.01267  Uiso   1.00
C643   C     0.66530   0.99650   0.56770   0.01267  Uiso   1.00
C644   C     0.66610   0.95690   0.60870   0.01267  Uiso   1.00
C645   C     0.04075   0.47617   0.87563   0.01267  Uiso   1.00
C646   C     0.04487   0.50699   0.82575   0.01267  Uiso   1.00
C647   C     0.04131   0.55329   0.81211   0.01267  Uiso   1.00
C648   C     0.04489   0.58309   0.76531   0.01267  Uiso   1.00
C649   C     0.04774   0.56820   0.73366   0.01267  Uiso   1.00
C650   C     0.05037   0.52073   0.74793   0.01267  Uiso   1.00
C651   C     0.04824   0.49196   0.79392   0.01267  Uiso   1.00
C652   C     0.04555   0.63309   0.74311   0.01267  Uiso   1.00
C653   C     0.04832   0.64508   0.69362   0.01267  Uiso   1.00
C654   C     0.04808   0.60830   0.68830   0.01267  Uiso   1.00
C655   C     0.09070   0.63090   0.74490   0.01267  Uiso   1.00
C656   C     0.14020   0.59780   0.71680   0.01267  Uiso   1.00
C657   C     0.99650   0.66530   0.77050   0.01267  Uiso   1.00
C658   C     0.95690   0.66610   0.76830   0.01267  Uiso   1.00
C659   C     0.60745   0.87563   0.47617   0.01267  Uiso   1.00
C660   C     0.62239   0.82575   0.50699   0.01267  Uiso   1.00
C661   C     0.59329   0.81211   0.55329   0.01267  Uiso   1.00
C662   C     0.60671   0.76531   0.58309   0.01267  Uiso   1.00
C663   C     0.65040   0.73366   0.56820   0.01267  Uiso   1.00
C664   C     0.68097   0.74793   0.52073   0.01267  Uiso   1.00
C665   C     0.66588   0.79392   0.49196   0.01267  Uiso   1.00
C666   C     0.57825   0.74311   0.63309   0.01267  Uiso   1.00
C667   C     0.61298   0.69362   0.64508   0.01267  Uiso   1.00
C668   C     0.65532   0.68830   0.60830   0.01267  Uiso   1.00
C669   C     0.53350   0.74490   0.63090   0.01267  Uiso   1.00
C670   C     0.54520   0.71680   0.59780   0.01267  Uiso   1.00
C671   C     0.56770   0.77050   0.66530   0.01267  Uiso   1.00
C672   C     0.60870   0.76830   0.66610   0.01267  Uiso   1.00
O61    O     0.96857   0.42969   0.50745   0.01267  Uiso   1.00
O62    O     0.95624   0.36716   0.56538   0.01267  Uiso   1.00
O63    O     0.42969   0.96857   0.09429   0.01267  Uiso   1.00
O64    O     0.36716   0.95624   0.11122   0.01267  Uiso   1.00
O65    O     0.09429   0.50745   0.42969   0.01267  Uiso   1.00
O66    O     0.11122   0.56538   0.36716   0.01267  Uiso   1.00
O67    O     0.50745   0.09429   0.96857   0.01267  Uiso   1.00
O68    O     0.56538   0.11122   0.95624   0.01267  Uiso   1.00
O69    O     0.50745   0.42969   0.09429   0.01267  Uiso   1.00
O70    O     0.56538   0.36716   0.11122   0.01267  Uiso   1.00
O71    O     0.09429   0.96857   0.50745   0.01267  Uiso   1.00
O72    O     0.11122   0.95624   0.56538   0.01267  Uiso   1.00
O73    O     0.42969   0.50745   0.96857   0.01267  Uiso   1.00
O74    O     0.36716   0.56538   0.95624   0.01267  Uiso   1.00
O75    O     0.96857   0.09429   0.42969   0.01267  Uiso   1.00
O76    O     0.95624   0.11122   0.36716   0.01267  Uiso   1.00
O77    O     0.09429   0.42969   0.96857   0.01267  Uiso   1.00
O78    O     0.11122   0.36716   0.95624   0.01267  Uiso   1.00
O79    O     0.50745   0.96857   0.42969   0.01267  Uiso   1.00
O80    O     0.56538   0.95624   0.36716   0.01267  Uiso   1.00
O81    O     0.96857   0.50745   0.09429   0.01267  Uiso   1.00
O82    O     0.95624   0.56538   0.11122   0.01267  Uiso   1.00
O83    O     0.42969   0.09429   0.50745   0.01267  Uiso   1.00
O84    O     0.36716   0.11122   0.56538   0.01267  Uiso   1.00
O85    O     0.03143   0.57031   0.49255   0.01267  Uiso   1.00
O86    O     0.04376   0.63284   0.43462   0.01267  Uiso   1.00
O87    O     0.57031   0.03143   0.90571   0.01267  Uiso   1.00
O88    O     0.63284   0.04376   0.88878   0.01267  Uiso   1.00
O89    O     0.90571   0.49255   0.57031   0.01267  Uiso   1.00
O90    O     0.88878   0.43462   0.63284   0.01267  Uiso   1.00
O91    O     0.49255   0.90571   0.03143   0.01267  Uiso   1.00
O92    O     0.43462   0.88878   0.04376   0.01267  Uiso   1.00
O93    O     0.49255   0.57031   0.90571   0.01267  Uiso   1.00
O94    O     0.43462   0.63284   0.88878   0.01267  Uiso   1.00
O95    O     0.90571   0.03143   0.49255   0.01267  Uiso   1.00
O96    O     0.88878   0.04376   0.43462   0.01267  Uiso   1.00
O97    O     0.57031   0.49255   0.03143   0.01267  Uiso   1.00
O98    O     0.63284   0.43462   0.04376   0.01267  Uiso   1.00
O99    O     0.03143   0.90571   0.57031   0.01267  Uiso   1.00
O100   O     0.04376   0.88878   0.63284   0.01267  Uiso   1.00
O101   O     0.90571   0.57031   0.03143   0.01267  Uiso   1.00
O102   O     0.88878   0.63284   0.04376   0.01267  Uiso   1.00
O103   O     0.49255   0.03143   0.57031   0.01267  Uiso   1.00
O104   O     0.43462   0.04376   0.63284   0.01267  Uiso   1.00
O105   O     0.03143   0.49255   0.90571   0.01267  Uiso   1.00
O106   O     0.04376   0.43462   0.88878   0.01267  Uiso   1.00
O107   O     0.57031   0.90571   0.49255   0.01267  Uiso   1.00
O108   O     0.63284   0.88878   0.43462   0.01267  Uiso   1.00
O109   O     0.98550   0.34810   0.65190   0.01267  Uiso   1.00
O110   O     0.34810   0.98550   0.01450   0.01267  Uiso   1.00
O111   O     0.01450   0.65190   0.34810   0.01267  Uiso   1.00
O112   O     0.65190   0.01450   0.98550   0.01267  Uiso   1.00
O113   O     0.65190   0.34810   0.01450   0.01267  Uiso   1.00
O114   O     0.01450   0.98550   0.65190   0.01267  Uiso   1.00
O115   O     0.34810   0.65190   0.98550   0.01267  Uiso   1.00
O116   O     0.98550   0.01450   0.34810   0.01267  Uiso   1.00
O117   O     0.01450   0.34810   0.98550   0.01267  Uiso   1.00
O118   O     0.65190   0.98550   0.34810   0.01267  Uiso   1.00
O119   O     0.98550   0.65190   0.01450   0.01267  Uiso   1.00
O120   O     0.34810   0.01450   0.65190   0.01267  Uiso   1.00
