data_EBUQOH_charged
_audit_creation_date              2014-07-02
_audit_creation_method            'Materials Studio'
_symmetry_space_group_name_H-M    'P1'
_symmetry_Int_Tables_number       1
_symmetry_cell_setting            triclinic
loop_
_symmetry_equiv_pos_as_xyz
  x,y,z
_cell_length_a                    13.7960
_cell_length_b                    30.7150
_cell_length_c                    33.5550
_cell_angle_alpha                 92.7990
_cell_angle_beta                  90.0000
_cell_angle_gamma                 90.0000
loop_
_atom_site_label
_atom_site_type_symbol
_atom_site_fract_x
_atom_site_fract_y
_atom_site_fract_z
_atom_site_U_iso_or_equiv
_atom_site_adp_type
_atom_site_occupancy
Na1    Na    0.93283   0.26280   0.72614   0.01267  Uiso   1.00
Na2    Na    0.71675   0.26927   0.75179   0.01267  Uiso   1.00
Na3    Na    0.11195   0.24065   0.77887   0.01267  Uiso   1.00
Na4    Na    0.32794   0.76567   0.74535   0.01267  Uiso   1.00
Na5    Na    0.93283   0.73720   0.77386   0.01267  Uiso   1.00
Na6    Na    0.71675   0.73073   0.74821   0.01267  Uiso   1.00
Na7    Na    0.11195   0.75935   0.72113   0.01267  Uiso   1.00
Na8    Na    0.32794   0.23433   0.75465   0.01267  Uiso   1.00
Na9    Na    0.06717   0.73720   0.27386   0.01267  Uiso   1.00
Na10   Na    0.28325   0.73073   0.24821   0.01267  Uiso   1.00
Na11   Na    0.88805   0.75935   0.22113   0.01267  Uiso   1.00
Na12   Na    0.67206   0.23433   0.25465   0.01267  Uiso   1.00
Na13   Na    0.06717   0.26280   0.22614   0.01267  Uiso   1.00
Na14   Na    0.28325   0.26927   0.25179   0.01267  Uiso   1.00
Na15   Na    0.88805   0.24065   0.27887   0.01267  Uiso   1.00
Na16   Na    0.67206   0.76567   0.24535   0.01267  Uiso   1.00
Zn1    Zn    0.80898   0.99608   0.96831   0.01267  Uiso   1.00
Zn2    Zn    0.20141   0.50301   0.52937   0.01267  Uiso   1.00
Zn3    Zn    0.80898   0.00392   0.53170   0.01267  Uiso   1.00
Zn4    Zn    0.20141   0.49699   0.97063   0.01267  Uiso   1.00
Zn5    Zn    0.19102   0.00392   0.03170   0.01267  Uiso   1.00
Zn6    Zn    0.79859   0.49699   0.47063   0.01267  Uiso   1.00
Zn7    Zn    0.19102   0.99608   0.46831   0.01267  Uiso   1.00
Zn8    Zn    0.79859   0.50301   0.02937   0.01267  Uiso   1.00
H1     H     0.80130   0.01770   0.81740   0.01267  Uiso   1.00
H2     H     0.72870   0.94510   0.82320   0.01267  Uiso   1.00
H3     H     0.66420   0.84260   0.94440   0.01267  Uiso   1.00
H4     H     0.70220   0.84620   0.01630   0.01267  Uiso   1.00
H5     H     0.88000   0.96250   0.11480   0.01267  Uiso   1.00
H6     H     0.94780   0.03570   0.10780   0.01267  Uiso   1.00
H7     H     0.97240   0.14510   0.99030   0.01267  Uiso   1.00
H8     H     0.93830   0.14010   0.91880   0.01267  Uiso   1.00
H9     H     0.01440   0.09360   0.85370   0.01267  Uiso   1.00
H10    H     0.02420   0.14900   0.81110   0.01267  Uiso   1.00
H11    H     0.73560   0.15280   0.80300   0.01267  Uiso   1.00
H12    H     0.72500   0.09910   0.84810   0.01267  Uiso   1.00
H13    H     0.78800   0.86400   0.84180   0.01267  Uiso   1.00
H14    H     0.71160   0.81510   0.79870   0.01267  Uiso   1.00
H15    H     0.45960   0.84070   0.85440   0.01267  Uiso   1.00
H16    H     0.53720   0.89040   0.89690   0.01267  Uiso   1.00
H17    H     0.86710   0.84760   0.06160   0.01267  Uiso   1.00
H18    H     0.84260   0.80410   0.11450   0.01267  Uiso   1.00
H19    H     0.65330   0.89050   0.16030   0.01267  Uiso   1.00
H20    H     0.67880   0.93360   0.10830   0.01267  Uiso   1.00
H21    H     0.08860   0.11630   0.03650   0.01267  Uiso   1.00
H22    H     0.13470   0.17310   0.07900   0.01267  Uiso   1.00
H23    H     0.88630   0.16320   0.13930   0.01267  Uiso   1.00
H24    H     0.83660   0.10800   0.09520   0.01267  Uiso   1.00
H25    H     0.61820   0.01970   0.92270   0.01267  Uiso   1.00
H26    H     0.46640   0.04930   0.93660   0.01267  Uiso   1.00
H27    H     0.43390   0.07450   0.99990   0.01267  Uiso   1.00
H28    H     0.54320   0.06850   0.04980   0.01267  Uiso   1.00
H29    H     0.69110   0.03900   0.03390   0.01267  Uiso   1.00
H30    H     0.56820   0.42710   0.48970   0.01267  Uiso   1.00
H31    H     0.51550   0.43280   0.55540   0.01267  Uiso   1.00
H32    H     0.36490   0.46280   0.57060   0.01267  Uiso   1.00
H33    H     0.31950   0.48140   0.45440   0.01267  Uiso   1.00
H34    H     0.47020   0.45140   0.43920   0.01267  Uiso   1.00
H35    H     0.30640   0.55010   0.67170   0.01267  Uiso   1.00
H36    H     0.23600   0.47840   0.67930   0.01267  Uiso   1.00
H37    H     0.11760   0.35150   0.57450   0.01267  Uiso   1.00
H38    H     0.06610   0.34910   0.50470   0.01267  Uiso   1.00
H39    H     0.01930   0.47310   0.39750   0.01267  Uiso   1.00
H40    H     0.08720   0.54590   0.39140   0.01267  Uiso   1.00
H41    H     0.30790   0.65210   0.48120   0.01267  Uiso   1.00
H42    H     0.35970   0.65440   0.55130   0.01267  Uiso   1.00
H43    H     0.49050   0.58980   0.60840   0.01267  Uiso   1.00
H44    H     0.57520   0.63830   0.65140   0.01267  Uiso   1.00
H45    H     0.32920   0.69210   0.68500   0.01267  Uiso   1.00
H46    H     0.24970   0.64760   0.64080   0.01267  Uiso   1.00
H47    H     0.02640   0.39750   0.64130   0.01267  Uiso   1.00
H48    H     0.01700   0.34780   0.69060   0.01267  Uiso   1.00
H49    H     0.30560   0.34820   0.69720   0.01267  Uiso   1.00
H50    H     0.31400   0.39670   0.64770   0.01267  Uiso   1.00
H51    H     0.12140   0.40360   0.39450   0.01267  Uiso   1.00
H52    H     0.05870   0.35000   0.35320   0.01267  Uiso   1.00
H53    H     0.85390   0.32590   0.43280   0.01267  Uiso   1.00
H54    H     0.91390   0.38110   0.47480   0.01267  Uiso   1.00
H55    H     0.09180   0.64090   0.42940   0.01267  Uiso   1.00
H56    H     0.10650   0.68290   0.37530   0.01267  Uiso   1.00
H57    H     0.35480   0.62370   0.34940   0.01267  Uiso   1.00
H58    H     0.33600   0.58120   0.40180   0.01267  Uiso   1.00
H59    H     0.85400   0.34290   0.78010   0.01267  Uiso   1.00
H60    H     0.17550   0.15640   0.72470   0.01267  Uiso   1.00
H61    H     0.80130   0.98230   0.68260   0.01267  Uiso   1.00
H62    H     0.72870   0.05490   0.67680   0.01267  Uiso   1.00
H63    H     0.66420   0.15740   0.55560   0.01267  Uiso   1.00
H64    H     0.70220   0.15380   0.48370   0.01267  Uiso   1.00
H65    H     0.88000   0.03750   0.38520   0.01267  Uiso   1.00
H66    H     0.94780   0.96430   0.39220   0.01267  Uiso   1.00
H67    H     0.97240   0.85490   0.50970   0.01267  Uiso   1.00
H68    H     0.93830   0.85990   0.58120   0.01267  Uiso   1.00
H69    H     0.01440   0.90640   0.64630   0.01267  Uiso   1.00
H70    H     0.02420   0.85100   0.68890   0.01267  Uiso   1.00
H71    H     0.73560   0.84720   0.69700   0.01267  Uiso   1.00
H72    H     0.72500   0.90090   0.65190   0.01267  Uiso   1.00
H73    H     0.78800   0.13600   0.65820   0.01267  Uiso   1.00
H74    H     0.71160   0.18490   0.70130   0.01267  Uiso   1.00
H75    H     0.45960   0.15930   0.64560   0.01267  Uiso   1.00
H76    H     0.53720   0.10960   0.60310   0.01267  Uiso   1.00
H77    H     0.86710   0.15240   0.43840   0.01267  Uiso   1.00
H78    H     0.84260   0.19590   0.38550   0.01267  Uiso   1.00
H79    H     0.65330   0.10950   0.33970   0.01267  Uiso   1.00
H80    H     0.67880   0.06640   0.39170   0.01267  Uiso   1.00
H81    H     0.08860   0.88370   0.46350   0.01267  Uiso   1.00
H82    H     0.13470   0.82690   0.42100   0.01267  Uiso   1.00
H83    H     0.88630   0.83680   0.36070   0.01267  Uiso   1.00
H84    H     0.83660   0.89200   0.40480   0.01267  Uiso   1.00
H85    H     0.61820   0.98030   0.57730   0.01267  Uiso   1.00
H86    H     0.46640   0.95070   0.56340   0.01267  Uiso   1.00
H87    H     0.43390   0.92550   0.50010   0.01267  Uiso   1.00
H88    H     0.54320   0.93150   0.45020   0.01267  Uiso   1.00
H89    H     0.69110   0.96100   0.46610   0.01267  Uiso   1.00
H90    H     0.56820   0.57290   0.01030   0.01267  Uiso   1.00
H91    H     0.51550   0.56720   0.94460   0.01267  Uiso   1.00
H92    H     0.36490   0.53720   0.92940   0.01267  Uiso   1.00
H93    H     0.31950   0.51860   0.04560   0.01267  Uiso   1.00
H94    H     0.47020   0.54860   0.06080   0.01267  Uiso   1.00
H95    H     0.30640   0.44990   0.82830   0.01267  Uiso   1.00
H96    H     0.23600   0.52160   0.82070   0.01267  Uiso   1.00
H97    H     0.11760   0.64850   0.92550   0.01267  Uiso   1.00
H98    H     0.06610   0.65090   0.99530   0.01267  Uiso   1.00
H99    H     0.01930   0.52690   0.10250   0.01267  Uiso   1.00
H100   H     0.08720   0.45410   0.10860   0.01267  Uiso   1.00
H101   H     0.30790   0.34790   0.01880   0.01267  Uiso   1.00
H102   H     0.35970   0.34560   0.94870   0.01267  Uiso   1.00
H103   H     0.49050   0.41020   0.89160   0.01267  Uiso   1.00
H104   H     0.57520   0.36170   0.84860   0.01267  Uiso   1.00
H105   H     0.32920   0.30790   0.81500   0.01267  Uiso   1.00
H106   H     0.24970   0.35240   0.85920   0.01267  Uiso   1.00
H107   H     0.02640   0.60250   0.85870   0.01267  Uiso   1.00
H108   H     0.01700   0.65220   0.80940   0.01267  Uiso   1.00
H109   H     0.30560   0.65180   0.80280   0.01267  Uiso   1.00
H110   H     0.31400   0.60330   0.85230   0.01267  Uiso   1.00
H111   H     0.12140   0.59640   0.10550   0.01267  Uiso   1.00
H112   H     0.05870   0.65000   0.14680   0.01267  Uiso   1.00
H113   H     0.85390   0.67410   0.06720   0.01267  Uiso   1.00
H114   H     0.91390   0.61890   0.02520   0.01267  Uiso   1.00
H115   H     0.09180   0.35910   0.07060   0.01267  Uiso   1.00
H116   H     0.10650   0.31710   0.12470   0.01267  Uiso   1.00
H117   H     0.35480   0.37630   0.15060   0.01267  Uiso   1.00
H118   H     0.33600   0.41880   0.09820   0.01267  Uiso   1.00
H119   H     0.85400   0.65710   0.71990   0.01267  Uiso   1.00
H120   H     0.17550   0.84360   0.77530   0.01267  Uiso   1.00
H121   H     0.19870   0.98230   0.18260   0.01267  Uiso   1.00
H122   H     0.27130   0.05490   0.17680   0.01267  Uiso   1.00
H123   H     0.33580   0.15740   0.05560   0.01267  Uiso   1.00
H124   H     0.29780   0.15380   0.98370   0.01267  Uiso   1.00
H125   H     0.12000   0.03750   0.88520   0.01267  Uiso   1.00
H126   H     0.05220   0.96430   0.89220   0.01267  Uiso   1.00
H127   H     0.02760   0.85490   0.00970   0.01267  Uiso   1.00
H128   H     0.06170   0.85990   0.08120   0.01267  Uiso   1.00
H129   H     0.98560   0.90640   0.14630   0.01267  Uiso   1.00
H130   H     0.97580   0.85100   0.18890   0.01267  Uiso   1.00
H131   H     0.26440   0.84720   0.19700   0.01267  Uiso   1.00
H132   H     0.27500   0.90090   0.15190   0.01267  Uiso   1.00
H133   H     0.21200   0.13600   0.15820   0.01267  Uiso   1.00
H134   H     0.28840   0.18490   0.20130   0.01267  Uiso   1.00
H135   H     0.54040   0.15930   0.14560   0.01267  Uiso   1.00
H136   H     0.46280   0.10960   0.10310   0.01267  Uiso   1.00
H137   H     0.13290   0.15240   0.93840   0.01267  Uiso   1.00
H138   H     0.15740   0.19590   0.88550   0.01267  Uiso   1.00
H139   H     0.34670   0.10950   0.83970   0.01267  Uiso   1.00
H140   H     0.32120   0.06640   0.89170   0.01267  Uiso   1.00
H141   H     0.91140   0.88370   0.96350   0.01267  Uiso   1.00
H142   H     0.86530   0.82690   0.92100   0.01267  Uiso   1.00
H143   H     0.11370   0.83680   0.86070   0.01267  Uiso   1.00
H144   H     0.16340   0.89200   0.90480   0.01267  Uiso   1.00
H145   H     0.38180   0.98030   0.07730   0.01267  Uiso   1.00
H146   H     0.53360   0.95070   0.06340   0.01267  Uiso   1.00
H147   H     0.56610   0.92550   0.00010   0.01267  Uiso   1.00
H148   H     0.45680   0.93150   0.95020   0.01267  Uiso   1.00
H149   H     0.30890   0.96100   0.96610   0.01267  Uiso   1.00
H150   H     0.43180   0.57290   0.51030   0.01267  Uiso   1.00
H151   H     0.48450   0.56720   0.44460   0.01267  Uiso   1.00
H152   H     0.63510   0.53720   0.42940   0.01267  Uiso   1.00
H153   H     0.68050   0.51860   0.54560   0.01267  Uiso   1.00
H154   H     0.52980   0.54860   0.56080   0.01267  Uiso   1.00
H155   H     0.69360   0.44990   0.32830   0.01267  Uiso   1.00
H156   H     0.76400   0.52160   0.32070   0.01267  Uiso   1.00
H157   H     0.88240   0.64850   0.42550   0.01267  Uiso   1.00
H158   H     0.93390   0.65090   0.49530   0.01267  Uiso   1.00
H159   H     0.98070   0.52690   0.60250   0.01267  Uiso   1.00
H160   H     0.91280   0.45410   0.60860   0.01267  Uiso   1.00
H161   H     0.69210   0.34790   0.51880   0.01267  Uiso   1.00
H162   H     0.64030   0.34560   0.44870   0.01267  Uiso   1.00
H163   H     0.50950   0.41020   0.39160   0.01267  Uiso   1.00
H164   H     0.42480   0.36170   0.34860   0.01267  Uiso   1.00
H165   H     0.67080   0.30790   0.31500   0.01267  Uiso   1.00
H166   H     0.75030   0.35240   0.35920   0.01267  Uiso   1.00
H167   H     0.97360   0.60250   0.35870   0.01267  Uiso   1.00
H168   H     0.98300   0.65220   0.30940   0.01267  Uiso   1.00
H169   H     0.69440   0.65180   0.30280   0.01267  Uiso   1.00
H170   H     0.68600   0.60330   0.35230   0.01267  Uiso   1.00
H171   H     0.87860   0.59640   0.60550   0.01267  Uiso   1.00
H172   H     0.94130   0.65000   0.64680   0.01267  Uiso   1.00
H173   H     0.14610   0.67410   0.56720   0.01267  Uiso   1.00
H174   H     0.08610   0.61890   0.52520   0.01267  Uiso   1.00
H175   H     0.90820   0.35910   0.57060   0.01267  Uiso   1.00
H176   H     0.89350   0.31710   0.62470   0.01267  Uiso   1.00
H177   H     0.64520   0.37630   0.65060   0.01267  Uiso   1.00
H178   H     0.66400   0.41880   0.59820   0.01267  Uiso   1.00
H179   H     0.14600   0.65710   0.21990   0.01267  Uiso   1.00
H180   H     0.82450   0.84360   0.27530   0.01267  Uiso   1.00
H181   H     0.19870   0.01770   0.31740   0.01267  Uiso   1.00
H182   H     0.27130   0.94510   0.32320   0.01267  Uiso   1.00
H183   H     0.33580   0.84260   0.44440   0.01267  Uiso   1.00
H184   H     0.29780   0.84620   0.51630   0.01267  Uiso   1.00
H185   H     0.12000   0.96250   0.61480   0.01267  Uiso   1.00
H186   H     0.05220   0.03570   0.60780   0.01267  Uiso   1.00
H187   H     0.02760   0.14510   0.49030   0.01267  Uiso   1.00
H188   H     0.06170   0.14010   0.41880   0.01267  Uiso   1.00
H189   H     0.98560   0.09360   0.35370   0.01267  Uiso   1.00
H190   H     0.97580   0.14900   0.31110   0.01267  Uiso   1.00
H191   H     0.26440   0.15280   0.30300   0.01267  Uiso   1.00
H192   H     0.27500   0.09910   0.34810   0.01267  Uiso   1.00
H193   H     0.21200   0.86400   0.34180   0.01267  Uiso   1.00
H194   H     0.28840   0.81510   0.29870   0.01267  Uiso   1.00
H195   H     0.54040   0.84070   0.35440   0.01267  Uiso   1.00
H196   H     0.46280   0.89040   0.39690   0.01267  Uiso   1.00
H197   H     0.13290   0.84760   0.56160   0.01267  Uiso   1.00
H198   H     0.15740   0.80410   0.61450   0.01267  Uiso   1.00
H199   H     0.34670   0.89050   0.66030   0.01267  Uiso   1.00
H200   H     0.32120   0.93360   0.60830   0.01267  Uiso   1.00
H201   H     0.91140   0.11630   0.53650   0.01267  Uiso   1.00
H202   H     0.86530   0.17310   0.57900   0.01267  Uiso   1.00
H203   H     0.11370   0.16320   0.63930   0.01267  Uiso   1.00
H204   H     0.16340   0.10800   0.59520   0.01267  Uiso   1.00
H205   H     0.38180   0.01970   0.42270   0.01267  Uiso   1.00
H206   H     0.53360   0.04930   0.43660   0.01267  Uiso   1.00
H207   H     0.56610   0.07450   0.49990   0.01267  Uiso   1.00
H208   H     0.45680   0.06850   0.54980   0.01267  Uiso   1.00
H209   H     0.30890   0.03900   0.53390   0.01267  Uiso   1.00
H210   H     0.43180   0.42710   0.98970   0.01267  Uiso   1.00
H211   H     0.48450   0.43280   0.05540   0.01267  Uiso   1.00
H212   H     0.63510   0.46280   0.07060   0.01267  Uiso   1.00
H213   H     0.68050   0.48140   0.95440   0.01267  Uiso   1.00
H214   H     0.52980   0.45140   0.93920   0.01267  Uiso   1.00
H215   H     0.69360   0.55010   0.17170   0.01267  Uiso   1.00
H216   H     0.76400   0.47840   0.17930   0.01267  Uiso   1.00
H217   H     0.88240   0.35150   0.07450   0.01267  Uiso   1.00
H218   H     0.93390   0.34910   0.00470   0.01267  Uiso   1.00
H219   H     0.98070   0.47310   0.89750   0.01267  Uiso   1.00
H220   H     0.91280   0.54590   0.89140   0.01267  Uiso   1.00
H221   H     0.69210   0.65210   0.98120   0.01267  Uiso   1.00
H222   H     0.64030   0.65440   0.05130   0.01267  Uiso   1.00
H223   H     0.50950   0.58980   0.10840   0.01267  Uiso   1.00
H224   H     0.42480   0.63830   0.15140   0.01267  Uiso   1.00
H225   H     0.67080   0.69210   0.18500   0.01267  Uiso   1.00
H226   H     0.75030   0.64760   0.14080   0.01267  Uiso   1.00
H227   H     0.97360   0.39750   0.14130   0.01267  Uiso   1.00
H228   H     0.98300   0.34780   0.19060   0.01267  Uiso   1.00
H229   H     0.69440   0.34820   0.19720   0.01267  Uiso   1.00
H230   H     0.68600   0.39670   0.14770   0.01267  Uiso   1.00
H231   H     0.87860   0.40360   0.89450   0.01267  Uiso   1.00
H232   H     0.94130   0.35000   0.85320   0.01267  Uiso   1.00
H233   H     0.14610   0.32590   0.93280   0.01267  Uiso   1.00
H234   H     0.08610   0.38110   0.97480   0.01267  Uiso   1.00
H235   H     0.90820   0.64090   0.92940   0.01267  Uiso   1.00
H236   H     0.89350   0.68290   0.87530   0.01267  Uiso   1.00
H237   H     0.64520   0.62370   0.84940   0.01267  Uiso   1.00
H238   H     0.66400   0.58120   0.90180   0.01267  Uiso   1.00
H239   H     0.14600   0.34290   0.28010   0.01267  Uiso   1.00
H240   H     0.82450   0.15640   0.22470   0.01267  Uiso   1.00
C1     C     0.89150   0.07486   0.92735   0.01267  Uiso   1.00
C2     C     0.86180   0.05956   0.88979   0.01267  Uiso   1.00
C3     C     0.82170   0.01805   0.88024   0.01267  Uiso   1.00
C4     C     0.79370   0.00284   0.84071   0.01267  Uiso   1.00
C5     C     0.75410   0.96285   0.84385   0.01267  Uiso   1.00
C6     C     0.75880   0.95271   0.88654   0.01267  Uiso   1.00
C7     C     0.72190   0.91510   0.90225   0.01267  Uiso   1.00
C8     C     0.72510   0.90520   0.94241   0.01267  Uiso   1.00
C9     C     0.69380   0.86573   0.95849   0.01267  Uiso   1.00
C10    C     0.71470   0.86764   0.99837   0.01267  Uiso   1.00
C11    C     0.75950   0.90894   0.00706   0.01267  Uiso   1.00
C12    C     0.79270   0.92382   0.04462   0.01267  Uiso   1.00
C13    C     0.84010   0.96449   0.05317   0.01267  Uiso   1.00
C14    C     0.88000   0.97833   0.09190   0.01267  Uiso   1.00
C15    C     0.91690   0.01862   0.08797   0.01267  Uiso   1.00
C16    C     0.90000   0.03024   0.04803   0.01267  Uiso   1.00
C17    C     0.92490   0.06980   0.03212   0.01267  Uiso   1.00
C18    C     0.92040   0.08007   0.99184   0.01267  Uiso   1.00
C19    C     0.94710   0.12108   0.97594   0.01267  Uiso   1.00
C20    C     0.92880   0.11833   0.93665   0.01267  Uiso   1.00
C21    C     0.86860   0.09122   0.85672   0.01267  Uiso   1.00
C22    C     0.95790   0.10602   0.84426   0.01267  Uiso   1.00
C23    C     0.96350   0.13875   0.81826   0.01267  Uiso   1.00
C24    C     0.88100   0.15729   0.80217   0.01267  Uiso   1.00
C25    C     0.79190   0.14146   0.81360   0.01267  Uiso   1.00
C26    C     0.78560   0.10910   0.84059   0.01267  Uiso   1.00
C27    C     0.88780   0.19409   0.77403   0.01267  Uiso   1.00
C28    C     0.67110   0.88238   0.87511   0.01267  Uiso   1.00
C29    C     0.72170   0.85935   0.84450   0.01267  Uiso   1.00
C30    C     0.67610   0.83022   0.81847   0.01267  Uiso   1.00
C31    C     0.57800   0.82327   0.82155   0.01267  Uiso   1.00
C32    C     0.52580   0.84559   0.85162   0.01267  Uiso   1.00
C33    C     0.57300   0.87507   0.87742   0.01267  Uiso   1.00
C34    C     0.52200   0.79291   0.79306   0.01267  Uiso   1.00
C35    C     0.77630   0.89554   0.07938   0.01267  Uiso   1.00
C36    C     0.82380   0.85642   0.08167   0.01267  Uiso   1.00
C37    C     0.80830   0.83004   0.11314   0.01267  Uiso   1.00
C38    C     0.74270   0.84164   0.14240   0.01267  Uiso   1.00
C39    C     0.69620   0.88141   0.14023   0.01267  Uiso   1.00
C40    C     0.71200   0.90738   0.10929   0.01267  Uiso   1.00
C41    C     0.72280   0.81342   0.17668   0.01267  Uiso   1.00
C42    C     0.95750   0.10559   0.06158   0.01267  Uiso   1.00
C43    C     0.04740   0.12583   0.05706   0.01267  Uiso   1.00
C44    C     0.07510   0.15962   0.08262   0.01267  Uiso   1.00
C45    C     0.01620   0.17400   0.11363   0.01267  Uiso   1.00
C46    C     0.92660   0.15393   0.11831   0.01267  Uiso   1.00
C47    C     0.89730   0.12057   0.09223   0.01267  Uiso   1.00
C48    C     0.04820   0.21095   0.14191   0.01267  Uiso   1.00
C49    C     0.60310   0.02945   0.94866   0.01267  Uiso   1.00
C50    C     0.51260   0.04740   0.95660   0.01267  Uiso   1.00
C51    C     0.49390   0.06180   0.99420   0.01267  Uiso   1.00
C52    C     0.55770   0.05880   0.02380   0.01267  Uiso   1.00
C53    C     0.64500   0.04093   0.01380   0.01267  Uiso   1.00
C54    C     0.50780   0.43913   0.49579   0.01267  Uiso   1.00
C55    C     0.47620   0.44255   0.53516   0.01267  Uiso   1.00
C56    C     0.38600   0.46051   0.54426   0.01267  Uiso   1.00
C57    C     0.35880   0.47164   0.47461   0.01267  Uiso   1.00
C58    C     0.44910   0.45368   0.46552   0.01267  Uiso   1.00
C59    C     0.29270   0.59209   0.55470   0.01267  Uiso   1.00
C60    C     0.30290   0.58070   0.59346   0.01267  Uiso   1.00
C61    C     0.26990   0.54265   0.61032   0.01267  Uiso   1.00
C62    C     0.27900   0.53232   0.65151   0.01267  Uiso   1.00
C63    C     0.24140   0.49286   0.65574   0.01267  Uiso   1.00
C64    C     0.21030   0.47696   0.61646   0.01267  Uiso   1.00
C65    C     0.17330   0.43464   0.60685   0.01267  Uiso   1.00
C66    C     0.14100   0.41976   0.56937   0.01267  Uiso   1.00
C67    C     0.11520   0.37504   0.55811   0.01267  Uiso   1.00
C68    C     0.08720   0.37360   0.51963   0.01267  Uiso   1.00
C69    C     0.09570   0.41740   0.50570   0.01267  Uiso   1.00
C70    C     0.07210   0.43146   0.46795   0.01267  Uiso   1.00
C71    C     0.08790   0.47224   0.45414   0.01267  Uiso   1.00
C72    C     0.05780   0.48811   0.41633   0.01267  Uiso   1.00
C73    C     0.09480   0.52821   0.41291   0.01267  Uiso   1.00
C74    C     0.14750   0.53844   0.44816   0.01267  Uiso   1.00
C75    C     0.20030   0.57749   0.45570   0.01267  Uiso   1.00
C76    C     0.24610   0.59010   0.49162   0.01267  Uiso   1.00
C77    C     0.29690   0.63072   0.49939   0.01267  Uiso   1.00
C78    C     0.32540   0.63200   0.53796   0.01267  Uiso   1.00
C79    C     0.35920   0.61283   0.62194   0.01267  Uiso   1.00
C80    C     0.45690   0.61050   0.62410   0.01267  Uiso   1.00
C81    C     0.50790   0.63980   0.65049   0.01267  Uiso   1.00
C82    C     0.46320   0.66904   0.67379   0.01267  Uiso   1.00
C83    C     0.36390   0.67140   0.66960   0.01267  Uiso   1.00
C84    C     0.31620   0.64410   0.64360   0.01267  Uiso   1.00
C85    C     0.52160   0.69867   0.70081   0.01267  Uiso   1.00
C86    C     0.17010   0.40378   0.63903   0.01267  Uiso   1.00
C87    C     0.08350   0.38764   0.65252   0.01267  Uiso   1.00
C88    C     0.07700   0.35740   0.68199   0.01267  Uiso   1.00
C89    C     0.16160   0.34202   0.69814   0.01267  Uiso   1.00
C90    C     0.24860   0.35773   0.68561   0.01267  Uiso   1.00
C91    C     0.25360   0.38739   0.65623   0.01267  Uiso   1.00
C92    C     0.15600   0.30795   0.72953   0.01267  Uiso   1.00
C93    C     0.02810   0.39705   0.43968   0.01267  Uiso   1.00
C94    C     0.06810   0.38778   0.40269   0.01267  Uiso   1.00
C95    C     0.03040   0.35582   0.37801   0.01267  Uiso   1.00
C96    C     0.95110   0.33188   0.38887   0.01267  Uiso   1.00
C97    C     0.90800   0.34156   0.42529   0.01267  Uiso   1.00
C98    C     0.94440   0.37419   0.45057   0.01267  Uiso   1.00
C99    C     0.91270   0.29589   0.36207   0.01267  Uiso   1.00
C100   C     0.21210   0.60639   0.42173   0.01267  Uiso   1.00
C101   C     0.14550   0.63690   0.41281   0.01267  Uiso   1.00
C102   C     0.15400   0.66236   0.38021   0.01267  Uiso   1.00
C103   C     0.23210   0.65757   0.35501   0.01267  Uiso   1.00
C104   C     0.29950   0.62719   0.36509   0.01267  Uiso   1.00
C105   C     0.28910   0.60197   0.39695   0.01267  Uiso   1.00
C106   C     0.24430   0.68422   0.31913   0.01267  Uiso   1.00
C107   C     0.89150   0.92514   0.57265   0.01267  Uiso   1.00
C108   C     0.86180   0.94044   0.61021   0.01267  Uiso   1.00
C109   C     0.82170   0.98195   0.61976   0.01267  Uiso   1.00
C110   C     0.79370   0.99716   0.65929   0.01267  Uiso   1.00
C111   C     0.75410   0.03715   0.65615   0.01267  Uiso   1.00
C112   C     0.75880   0.04729   0.61346   0.01267  Uiso   1.00
C113   C     0.72190   0.08490   0.59775   0.01267  Uiso   1.00
C114   C     0.72510   0.09480   0.55759   0.01267  Uiso   1.00
C115   C     0.69380   0.13427   0.54151   0.01267  Uiso   1.00
C116   C     0.71470   0.13236   0.50163   0.01267  Uiso   1.00
C117   C     0.75950   0.09106   0.49294   0.01267  Uiso   1.00
C118   C     0.79270   0.07618   0.45538   0.01267  Uiso   1.00
C119   C     0.84010   0.03551   0.44683   0.01267  Uiso   1.00
C120   C     0.88000   0.02167   0.40810   0.01267  Uiso   1.00
C121   C     0.91690   0.98138   0.41203   0.01267  Uiso   1.00
C122   C     0.90000   0.96976   0.45197   0.01267  Uiso   1.00
C123   C     0.92490   0.93020   0.46788   0.01267  Uiso   1.00
C124   C     0.92040   0.91993   0.50816   0.01267  Uiso   1.00
C125   C     0.94710   0.87892   0.52406   0.01267  Uiso   1.00
C126   C     0.92880   0.88167   0.56335   0.01267  Uiso   1.00
C127   C     0.86860   0.90878   0.64328   0.01267  Uiso   1.00
C128   C     0.95790   0.89398   0.65574   0.01267  Uiso   1.00
C129   C     0.96350   0.86125   0.68174   0.01267  Uiso   1.00
C130   C     0.88100   0.84271   0.69783   0.01267  Uiso   1.00
C131   C     0.79190   0.85854   0.68640   0.01267  Uiso   1.00
C132   C     0.78560   0.89090   0.65941   0.01267  Uiso   1.00
C133   C     0.88780   0.80591   0.72597   0.01267  Uiso   1.00
C134   C     0.67110   0.11762   0.62489   0.01267  Uiso   1.00
C135   C     0.72170   0.14065   0.65550   0.01267  Uiso   1.00
C136   C     0.67610   0.16978   0.68153   0.01267  Uiso   1.00
C137   C     0.57800   0.17673   0.67845   0.01267  Uiso   1.00
C138   C     0.52580   0.15441   0.64838   0.01267  Uiso   1.00
C139   C     0.57300   0.12493   0.62258   0.01267  Uiso   1.00
C140   C     0.52200   0.20709   0.70694   0.01267  Uiso   1.00
C141   C     0.77630   0.10446   0.42062   0.01267  Uiso   1.00
C142   C     0.82380   0.14358   0.41833   0.01267  Uiso   1.00
C143   C     0.80830   0.16996   0.38686   0.01267  Uiso   1.00
C144   C     0.74270   0.15836   0.35760   0.01267  Uiso   1.00
C145   C     0.69620   0.11859   0.35977   0.01267  Uiso   1.00
C146   C     0.71200   0.09262   0.39071   0.01267  Uiso   1.00
C147   C     0.72280   0.18658   0.32332   0.01267  Uiso   1.00
C148   C     0.95750   0.89441   0.43842   0.01267  Uiso   1.00
C149   C     0.04740   0.87417   0.44294   0.01267  Uiso   1.00
C150   C     0.07510   0.84038   0.41738   0.01267  Uiso   1.00
C151   C     0.01620   0.82600   0.38637   0.01267  Uiso   1.00
C152   C     0.92660   0.84607   0.38169   0.01267  Uiso   1.00
C153   C     0.89730   0.87943   0.40777   0.01267  Uiso   1.00
C154   C     0.04820   0.78905   0.35809   0.01267  Uiso   1.00
C155   C     0.60310   0.97055   0.55134   0.01267  Uiso   1.00
C156   C     0.51260   0.95260   0.54340   0.01267  Uiso   1.00
C157   C     0.49390   0.93820   0.50580   0.01267  Uiso   1.00
C158   C     0.55770   0.94120   0.47620   0.01267  Uiso   1.00
C159   C     0.64500   0.95907   0.48620   0.01267  Uiso   1.00
C160   C     0.50780   0.56087   0.00421   0.01267  Uiso   1.00
C161   C     0.47620   0.55745   0.96484   0.01267  Uiso   1.00
C162   C     0.38600   0.53949   0.95574   0.01267  Uiso   1.00
C163   C     0.35880   0.52836   0.02539   0.01267  Uiso   1.00
C164   C     0.44910   0.54632   0.03448   0.01267  Uiso   1.00
C165   C     0.29270   0.40791   0.94530   0.01267  Uiso   1.00
C166   C     0.30290   0.41930   0.90654   0.01267  Uiso   1.00
C167   C     0.26990   0.45735   0.88968   0.01267  Uiso   1.00
C168   C     0.27900   0.46768   0.84849   0.01267  Uiso   1.00
C169   C     0.24140   0.50714   0.84426   0.01267  Uiso   1.00
C170   C     0.21030   0.52304   0.88354   0.01267  Uiso   1.00
C171   C     0.17330   0.56536   0.89315   0.01267  Uiso   1.00
C172   C     0.14100   0.58024   0.93063   0.01267  Uiso   1.00
C173   C     0.11520   0.62496   0.94189   0.01267  Uiso   1.00
C174   C     0.08720   0.62640   0.98037   0.01267  Uiso   1.00
C175   C     0.09570   0.58260   0.99430   0.01267  Uiso   1.00
C176   C     0.07210   0.56854   0.03205   0.01267  Uiso   1.00
C177   C     0.08790   0.52776   0.04586   0.01267  Uiso   1.00
C178   C     0.05780   0.51189   0.08367   0.01267  Uiso   1.00
C179   C     0.09480   0.47179   0.08709   0.01267  Uiso   1.00
C180   C     0.14750   0.46156   0.05184   0.01267  Uiso   1.00
C181   C     0.20030   0.42251   0.04430   0.01267  Uiso   1.00
C182   C     0.24610   0.40990   0.00838   0.01267  Uiso   1.00
C183   C     0.29690   0.36928   0.00061   0.01267  Uiso   1.00
C184   C     0.32540   0.36800   0.96204   0.01267  Uiso   1.00
C185   C     0.35920   0.38717   0.87806   0.01267  Uiso   1.00
C186   C     0.45690   0.38950   0.87590   0.01267  Uiso   1.00
C187   C     0.50790   0.36020   0.84951   0.01267  Uiso   1.00
C188   C     0.46320   0.33096   0.82621   0.01267  Uiso   1.00
C189   C     0.36390   0.32860   0.83040   0.01267  Uiso   1.00
C190   C     0.31620   0.35590   0.85640   0.01267  Uiso   1.00
C191   C     0.52160   0.30133   0.79919   0.01267  Uiso   1.00
C192   C     0.17010   0.59622   0.86097   0.01267  Uiso   1.00
C193   C     0.08350   0.61236   0.84748   0.01267  Uiso   1.00
C194   C     0.07700   0.64260   0.81801   0.01267  Uiso   1.00
C195   C     0.16160   0.65798   0.80186   0.01267  Uiso   1.00
C196   C     0.24860   0.64227   0.81439   0.01267  Uiso   1.00
C197   C     0.25360   0.61261   0.84377   0.01267  Uiso   1.00
C198   C     0.15600   0.69205   0.77047   0.01267  Uiso   1.00
C199   C     0.02810   0.60295   0.06032   0.01267  Uiso   1.00
C200   C     0.06810   0.61222   0.09731   0.01267  Uiso   1.00
C201   C     0.03040   0.64418   0.12199   0.01267  Uiso   1.00
C202   C     0.95110   0.66812   0.11113   0.01267  Uiso   1.00
C203   C     0.90800   0.65844   0.07471   0.01267  Uiso   1.00
C204   C     0.94440   0.62581   0.04943   0.01267  Uiso   1.00
C205   C     0.91270   0.70411   0.13793   0.01267  Uiso   1.00
C206   C     0.21210   0.39361   0.07827   0.01267  Uiso   1.00
C207   C     0.14550   0.36310   0.08719   0.01267  Uiso   1.00
C208   C     0.15400   0.33764   0.11979   0.01267  Uiso   1.00
C209   C     0.23210   0.34243   0.14499   0.01267  Uiso   1.00
C210   C     0.29950   0.37281   0.13491   0.01267  Uiso   1.00
C211   C     0.28910   0.39803   0.10305   0.01267  Uiso   1.00
C212   C     0.24430   0.31578   0.18087   0.01267  Uiso   1.00
C213   C     0.10850   0.92514   0.07265   0.01267  Uiso   1.00
C214   C     0.13820   0.94044   0.11021   0.01267  Uiso   1.00
C215   C     0.17830   0.98195   0.11976   0.01267  Uiso   1.00
C216   C     0.20630   0.99716   0.15929   0.01267  Uiso   1.00
C217   C     0.24590   0.03715   0.15615   0.01267  Uiso   1.00
C218   C     0.24120   0.04729   0.11346   0.01267  Uiso   1.00
C219   C     0.27810   0.08490   0.09775   0.01267  Uiso   1.00
C220   C     0.27490   0.09480   0.05759   0.01267  Uiso   1.00
C221   C     0.30620   0.13427   0.04151   0.01267  Uiso   1.00
C222   C     0.28530   0.13236   0.00163   0.01267  Uiso   1.00
C223   C     0.24050   0.09106   0.99294   0.01267  Uiso   1.00
C224   C     0.20730   0.07618   0.95538   0.01267  Uiso   1.00
C225   C     0.15990   0.03551   0.94683   0.01267  Uiso   1.00
C226   C     0.12000   0.02167   0.90810   0.01267  Uiso   1.00
C227   C     0.08310   0.98138   0.91203   0.01267  Uiso   1.00
C228   C     0.10000   0.96976   0.95197   0.01267  Uiso   1.00
C229   C     0.07510   0.93020   0.96788   0.01267  Uiso   1.00
C230   C     0.07960   0.91993   0.00816   0.01267  Uiso   1.00
C231   C     0.05290   0.87892   0.02406   0.01267  Uiso   1.00
C232   C     0.07120   0.88167   0.06335   0.01267  Uiso   1.00
C233   C     0.13140   0.90878   0.14328   0.01267  Uiso   1.00
C234   C     0.04210   0.89398   0.15574   0.01267  Uiso   1.00
C235   C     0.03650   0.86125   0.18174   0.01267  Uiso   1.00
C236   C     0.11900   0.84271   0.19783   0.01267  Uiso   1.00
C237   C     0.20810   0.85854   0.18640   0.01267  Uiso   1.00
C238   C     0.21440   0.89090   0.15941   0.01267  Uiso   1.00
C239   C     0.11220   0.80591   0.22597   0.01267  Uiso   1.00
C240   C     0.32890   0.11762   0.12489   0.01267  Uiso   1.00
C241   C     0.27830   0.14065   0.15550   0.01267  Uiso   1.00
C242   C     0.32390   0.16978   0.18153   0.01267  Uiso   1.00
C243   C     0.42200   0.17673   0.17845   0.01267  Uiso   1.00
C244   C     0.47420   0.15441   0.14838   0.01267  Uiso   1.00
C245   C     0.42700   0.12493   0.12258   0.01267  Uiso   1.00
C246   C     0.47800   0.20709   0.20694   0.01267  Uiso   1.00
C247   C     0.22370   0.10446   0.92062   0.01267  Uiso   1.00
C248   C     0.17620   0.14358   0.91833   0.01267  Uiso   1.00
C249   C     0.19170   0.16996   0.88686   0.01267  Uiso   1.00
C250   C     0.25730   0.15836   0.85760   0.01267  Uiso   1.00
C251   C     0.30380   0.11859   0.85977   0.01267  Uiso   1.00
C252   C     0.28800   0.09262   0.89071   0.01267  Uiso   1.00
C253   C     0.27720   0.18658   0.82332   0.01267  Uiso   1.00
C254   C     0.04250   0.89441   0.93842   0.01267  Uiso   1.00
C255   C     0.95260   0.87417   0.94294   0.01267  Uiso   1.00
C256   C     0.92490   0.84038   0.91738   0.01267  Uiso   1.00
C257   C     0.98380   0.82600   0.88637   0.01267  Uiso   1.00
C258   C     0.07340   0.84607   0.88169   0.01267  Uiso   1.00
C259   C     0.10270   0.87943   0.90777   0.01267  Uiso   1.00
C260   C     0.95180   0.78905   0.85809   0.01267  Uiso   1.00
C261   C     0.39690   0.97055   0.05134   0.01267  Uiso   1.00
C262   C     0.48740   0.95260   0.04340   0.01267  Uiso   1.00
C263   C     0.50610   0.93820   0.00580   0.01267  Uiso   1.00
C264   C     0.44230   0.94120   0.97620   0.01267  Uiso   1.00
C265   C     0.35500   0.95907   0.98620   0.01267  Uiso   1.00
C266   C     0.49220   0.56087   0.50421   0.01267  Uiso   1.00
C267   C     0.52380   0.55745   0.46484   0.01267  Uiso   1.00
C268   C     0.61400   0.53949   0.45574   0.01267  Uiso   1.00
C269   C     0.64120   0.52836   0.52539   0.01267  Uiso   1.00
C270   C     0.55090   0.54632   0.53448   0.01267  Uiso   1.00
C271   C     0.70730   0.40791   0.44530   0.01267  Uiso   1.00
C272   C     0.69710   0.41930   0.40654   0.01267  Uiso   1.00
C273   C     0.73010   0.45735   0.38968   0.01267  Uiso   1.00
C274   C     0.72100   0.46768   0.34849   0.01267  Uiso   1.00
C275   C     0.75860   0.50714   0.34426   0.01267  Uiso   1.00
C276   C     0.78970   0.52304   0.38354   0.01267  Uiso   1.00
C277   C     0.82670   0.56536   0.39315   0.01267  Uiso   1.00
C278   C     0.85900   0.58024   0.43063   0.01267  Uiso   1.00
C279   C     0.88480   0.62496   0.44189   0.01267  Uiso   1.00
C280   C     0.91280   0.62640   0.48037   0.01267  Uiso   1.00
C281   C     0.90430   0.58260   0.49430   0.01267  Uiso   1.00
C282   C     0.92790   0.56854   0.53205   0.01267  Uiso   1.00
C283   C     0.91210   0.52776   0.54586   0.01267  Uiso   1.00
C284   C     0.94220   0.51189   0.58367   0.01267  Uiso   1.00
C285   C     0.90520   0.47179   0.58709   0.01267  Uiso   1.00
C286   C     0.85250   0.46156   0.55184   0.01267  Uiso   1.00
C287   C     0.79970   0.42251   0.54430   0.01267  Uiso   1.00
C288   C     0.75390   0.40990   0.50838   0.01267  Uiso   1.00
C289   C     0.70310   0.36928   0.50061   0.01267  Uiso   1.00
C290   C     0.67460   0.36800   0.46204   0.01267  Uiso   1.00
C291   C     0.64080   0.38717   0.37806   0.01267  Uiso   1.00
C292   C     0.54310   0.38950   0.37590   0.01267  Uiso   1.00
C293   C     0.49210   0.36020   0.34951   0.01267  Uiso   1.00
C294   C     0.53680   0.33096   0.32621   0.01267  Uiso   1.00
C295   C     0.63610   0.32860   0.33040   0.01267  Uiso   1.00
C296   C     0.68380   0.35590   0.35640   0.01267  Uiso   1.00
C297   C     0.47840   0.30133   0.29919   0.01267  Uiso   1.00
C298   C     0.82990   0.59622   0.36097   0.01267  Uiso   1.00
C299   C     0.91650   0.61236   0.34748   0.01267  Uiso   1.00
C300   C     0.92300   0.64260   0.31801   0.01267  Uiso   1.00
C301   C     0.83840   0.65798   0.30186   0.01267  Uiso   1.00
C302   C     0.75140   0.64227   0.31439   0.01267  Uiso   1.00
C303   C     0.74640   0.61261   0.34377   0.01267  Uiso   1.00
C304   C     0.84400   0.69205   0.27047   0.01267  Uiso   1.00
C305   C     0.97190   0.60295   0.56032   0.01267  Uiso   1.00
C306   C     0.93190   0.61222   0.59731   0.01267  Uiso   1.00
C307   C     0.96960   0.64418   0.62199   0.01267  Uiso   1.00
C308   C     0.04890   0.66812   0.61113   0.01267  Uiso   1.00
C309   C     0.09200   0.65844   0.57471   0.01267  Uiso   1.00
C310   C     0.05560   0.62581   0.54943   0.01267  Uiso   1.00
C311   C     0.08730   0.70411   0.63793   0.01267  Uiso   1.00
C312   C     0.78790   0.39361   0.57827   0.01267  Uiso   1.00
C313   C     0.85450   0.36310   0.58719   0.01267  Uiso   1.00
C314   C     0.84600   0.33764   0.61979   0.01267  Uiso   1.00
C315   C     0.76790   0.34243   0.64499   0.01267  Uiso   1.00
C316   C     0.70050   0.37281   0.63491   0.01267  Uiso   1.00
C317   C     0.71090   0.39803   0.60305   0.01267  Uiso   1.00
C318   C     0.75570   0.31578   0.68087   0.01267  Uiso   1.00
C319   C     0.10850   0.07486   0.42735   0.01267  Uiso   1.00
C320   C     0.13820   0.05956   0.38979   0.01267  Uiso   1.00
C321   C     0.17830   0.01805   0.38024   0.01267  Uiso   1.00
C322   C     0.20630   0.00284   0.34071   0.01267  Uiso   1.00
C323   C     0.24590   0.96285   0.34385   0.01267  Uiso   1.00
C324   C     0.24120   0.95271   0.38654   0.01267  Uiso   1.00
C325   C     0.27810   0.91510   0.40225   0.01267  Uiso   1.00
C326   C     0.27490   0.90520   0.44241   0.01267  Uiso   1.00
C327   C     0.30620   0.86573   0.45849   0.01267  Uiso   1.00
C328   C     0.28530   0.86764   0.49837   0.01267  Uiso   1.00
C329   C     0.24050   0.90894   0.50706   0.01267  Uiso   1.00
C330   C     0.20730   0.92382   0.54462   0.01267  Uiso   1.00
C331   C     0.15990   0.96449   0.55317   0.01267  Uiso   1.00
C332   C     0.12000   0.97833   0.59190   0.01267  Uiso   1.00
C333   C     0.08310   0.01862   0.58797   0.01267  Uiso   1.00
C334   C     0.10000   0.03024   0.54803   0.01267  Uiso   1.00
C335   C     0.07510   0.06980   0.53212   0.01267  Uiso   1.00
C336   C     0.07960   0.08007   0.49184   0.01267  Uiso   1.00
C337   C     0.05290   0.12108   0.47594   0.01267  Uiso   1.00
C338   C     0.07120   0.11833   0.43665   0.01267  Uiso   1.00
C339   C     0.13140   0.09122   0.35672   0.01267  Uiso   1.00
C340   C     0.04210   0.10602   0.34426   0.01267  Uiso   1.00
C341   C     0.03650   0.13875   0.31826   0.01267  Uiso   1.00
C342   C     0.11900   0.15729   0.30217   0.01267  Uiso   1.00
C343   C     0.20810   0.14146   0.31360   0.01267  Uiso   1.00
C344   C     0.21440   0.10910   0.34059   0.01267  Uiso   1.00
C345   C     0.11220   0.19409   0.27403   0.01267  Uiso   1.00
C346   C     0.32890   0.88238   0.37511   0.01267  Uiso   1.00
C347   C     0.27830   0.85935   0.34450   0.01267  Uiso   1.00
C348   C     0.32390   0.83022   0.31847   0.01267  Uiso   1.00
C349   C     0.42200   0.82327   0.32155   0.01267  Uiso   1.00
C350   C     0.47420   0.84559   0.35162   0.01267  Uiso   1.00
C351   C     0.42700   0.87507   0.37742   0.01267  Uiso   1.00
C352   C     0.47800   0.79291   0.29306   0.01267  Uiso   1.00
C353   C     0.22370   0.89554   0.57938   0.01267  Uiso   1.00
C354   C     0.17620   0.85642   0.58167   0.01267  Uiso   1.00
C355   C     0.19170   0.83004   0.61314   0.01267  Uiso   1.00
C356   C     0.25730   0.84164   0.64240   0.01267  Uiso   1.00
C357   C     0.30380   0.88141   0.64023   0.01267  Uiso   1.00
C358   C     0.28800   0.90738   0.60929   0.01267  Uiso   1.00
C359   C     0.27720   0.81342   0.67668   0.01267  Uiso   1.00
C360   C     0.04250   0.10559   0.56158   0.01267  Uiso   1.00
C361   C     0.95260   0.12583   0.55706   0.01267  Uiso   1.00
C362   C     0.92490   0.15962   0.58262   0.01267  Uiso   1.00
C363   C     0.98380   0.17400   0.61363   0.01267  Uiso   1.00
C364   C     0.07340   0.15393   0.61831   0.01267  Uiso   1.00
C365   C     0.10270   0.12057   0.59223   0.01267  Uiso   1.00
C366   C     0.95180   0.21095   0.64191   0.01267  Uiso   1.00
C367   C     0.39690   0.02945   0.44866   0.01267  Uiso   1.00
C368   C     0.48740   0.04740   0.45660   0.01267  Uiso   1.00
C369   C     0.50610   0.06180   0.49420   0.01267  Uiso   1.00
C370   C     0.44230   0.05880   0.52380   0.01267  Uiso   1.00
C371   C     0.35500   0.04093   0.51380   0.01267  Uiso   1.00
C372   C     0.49220   0.43913   0.99579   0.01267  Uiso   1.00
C373   C     0.52380   0.44255   0.03516   0.01267  Uiso   1.00
C374   C     0.61400   0.46051   0.04426   0.01267  Uiso   1.00
C375   C     0.64120   0.47164   0.97461   0.01267  Uiso   1.00
C376   C     0.55090   0.45368   0.96552   0.01267  Uiso   1.00
C377   C     0.70730   0.59209   0.05470   0.01267  Uiso   1.00
C378   C     0.69710   0.58070   0.09346   0.01267  Uiso   1.00
C379   C     0.73010   0.54265   0.11032   0.01267  Uiso   1.00
C380   C     0.72100   0.53232   0.15151   0.01267  Uiso   1.00
C381   C     0.75860   0.49286   0.15574   0.01267  Uiso   1.00
C382   C     0.78970   0.47696   0.11646   0.01267  Uiso   1.00
C383   C     0.82670   0.43464   0.10685   0.01267  Uiso   1.00
C384   C     0.85900   0.41976   0.06937   0.01267  Uiso   1.00
C385   C     0.88480   0.37504   0.05811   0.01267  Uiso   1.00
C386   C     0.91280   0.37360   0.01963   0.01267  Uiso   1.00
C387   C     0.90430   0.41740   0.00570   0.01267  Uiso   1.00
C388   C     0.92790   0.43146   0.96795   0.01267  Uiso   1.00
C389   C     0.91210   0.47224   0.95414   0.01267  Uiso   1.00
C390   C     0.94220   0.48811   0.91633   0.01267  Uiso   1.00
C391   C     0.90520   0.52821   0.91291   0.01267  Uiso   1.00
C392   C     0.85250   0.53844   0.94816   0.01267  Uiso   1.00
C393   C     0.79970   0.57749   0.95570   0.01267  Uiso   1.00
C394   C     0.75390   0.59010   0.99162   0.01267  Uiso   1.00
C395   C     0.70310   0.63072   0.99939   0.01267  Uiso   1.00
C396   C     0.67460   0.63200   0.03796   0.01267  Uiso   1.00
C397   C     0.64080   0.61283   0.12194   0.01267  Uiso   1.00
C398   C     0.54310   0.61050   0.12410   0.01267  Uiso   1.00
C399   C     0.49210   0.63980   0.15049   0.01267  Uiso   1.00
C400   C     0.53680   0.66904   0.17379   0.01267  Uiso   1.00
C401   C     0.63610   0.67140   0.16960   0.01267  Uiso   1.00
C402   C     0.68380   0.64410   0.14360   0.01267  Uiso   1.00
C403   C     0.47840   0.69867   0.20081   0.01267  Uiso   1.00
C404   C     0.82990   0.40378   0.13903   0.01267  Uiso   1.00
C405   C     0.91650   0.38764   0.15252   0.01267  Uiso   1.00
C406   C     0.92300   0.35740   0.18199   0.01267  Uiso   1.00
C407   C     0.83840   0.34202   0.19814   0.01267  Uiso   1.00
C408   C     0.75140   0.35773   0.18561   0.01267  Uiso   1.00
C409   C     0.74640   0.38739   0.15623   0.01267  Uiso   1.00
C410   C     0.84400   0.30795   0.22953   0.01267  Uiso   1.00
C411   C     0.97190   0.39705   0.93968   0.01267  Uiso   1.00
C412   C     0.93190   0.38778   0.90269   0.01267  Uiso   1.00
C413   C     0.96960   0.35582   0.87801   0.01267  Uiso   1.00
C414   C     0.04890   0.33188   0.88887   0.01267  Uiso   1.00
C415   C     0.09200   0.34156   0.92529   0.01267  Uiso   1.00
C416   C     0.05560   0.37419   0.95057   0.01267  Uiso   1.00
C417   C     0.08730   0.29589   0.86207   0.01267  Uiso   1.00
C418   C     0.78790   0.60639   0.92173   0.01267  Uiso   1.00
C419   C     0.85450   0.63690   0.91281   0.01267  Uiso   1.00
C420   C     0.84600   0.66236   0.88021   0.01267  Uiso   1.00
C421   C     0.76790   0.65757   0.85501   0.01267  Uiso   1.00
C422   C     0.70050   0.62719   0.86509   0.01267  Uiso   1.00
C423   C     0.71090   0.60197   0.89695   0.01267  Uiso   1.00
C424   C     0.75570   0.68422   0.81913   0.01267  Uiso   1.00
N1     N     0.80170   0.98739   0.90692   0.01267  Uiso   1.00
N2     N     0.76470   0.93197   0.97288   0.01267  Uiso   1.00
N3     N     0.85530   0.99628   0.02715   0.01267  Uiso   1.00
N4     N     0.88761   0.05263   0.96111   0.01267  Uiso   1.00
N5     N     0.66890   0.02595   0.97728   0.01267  Uiso   1.00
N6     N     0.32720   0.47506   0.51398   0.01267  Uiso   1.00
N7     N     0.22680   0.50847   0.58962   0.01267  Uiso   1.00
N8     N     0.13070   0.44438   0.53666   0.01267  Uiso   1.00
N9     N     0.14030   0.50552   0.47369   0.01267  Uiso   1.00
N10    N     0.24590   0.56690   0.52522   0.01267  Uiso   1.00
N11    N     0.80170   0.01261   0.59308   0.01267  Uiso   1.00
N12    N     0.76470   0.06803   0.52712   0.01267  Uiso   1.00
N13    N     0.85530   0.00372   0.47285   0.01267  Uiso   1.00
N14    N     0.88761   0.94737   0.53889   0.01267  Uiso   1.00
N15    N     0.66890   0.97405   0.52272   0.01267  Uiso   1.00
N16    N     0.32720   0.52494   0.98602   0.01267  Uiso   1.00
N17    N     0.22680   0.49153   0.91038   0.01267  Uiso   1.00
N18    N     0.13070   0.55562   0.96334   0.01267  Uiso   1.00
N19    N     0.14030   0.49448   0.02631   0.01267  Uiso   1.00
N20    N     0.24590   0.43310   0.97478   0.01267  Uiso   1.00
N21    N     0.19830   0.01261   0.09308   0.01267  Uiso   1.00
N22    N     0.23530   0.06803   0.02712   0.01267  Uiso   1.00
N23    N     0.14470   0.00372   0.97285   0.01267  Uiso   1.00
N24    N     0.11239   0.94737   0.03889   0.01267  Uiso   1.00
N25    N     0.33110   0.97405   0.02272   0.01267  Uiso   1.00
N26    N     0.67280   0.52494   0.48602   0.01267  Uiso   1.00
N27    N     0.77320   0.49153   0.41038   0.01267  Uiso   1.00
N28    N     0.86930   0.55562   0.46334   0.01267  Uiso   1.00
N29    N     0.85970   0.49448   0.52631   0.01267  Uiso   1.00
N30    N     0.75410   0.43310   0.47478   0.01267  Uiso   1.00
N31    N     0.19830   0.98739   0.40692   0.01267  Uiso   1.00
N32    N     0.23530   0.93197   0.47288   0.01267  Uiso   1.00
N33    N     0.14470   0.99628   0.52715   0.01267  Uiso   1.00
N34    N     0.11239   0.05263   0.46111   0.01267  Uiso   1.00
N35    N     0.33110   0.02595   0.47728   0.01267  Uiso   1.00
N36    N     0.67280   0.47506   0.01398   0.01267  Uiso   1.00
N37    N     0.77320   0.50847   0.08962   0.01267  Uiso   1.00
N38    N     0.86930   0.44438   0.03666   0.01267  Uiso   1.00
N39    N     0.85970   0.50552   0.97369   0.01267  Uiso   1.00
N40    N     0.75410   0.56690   0.02522   0.01267  Uiso   1.00
O1     O     0.81188   0.20921   0.76039   0.01267  Uiso   1.00
O2     O     0.97200   0.20752   0.76667   0.01267  Uiso   1.00
O3     O     0.43473   0.78955   0.79491   0.01267  Uiso   1.00
O4     O     0.57579   0.77221   0.76663   0.01267  Uiso   1.00
O5     O     0.76602   0.77716   0.17857   0.01267  Uiso   1.00
O6     O     0.66250   0.82601   0.20295   0.01267  Uiso   1.00
O7     O     0.12820   0.22930   0.13140   0.01267  Uiso   1.00
O8     O     0.00060   0.22221   0.17188   0.01267  Uiso   1.00
O9     O     0.60747   0.69561   0.70373   0.01267  Uiso   1.00
O10    O     0.47060   0.72785   0.72091   0.01267  Uiso   1.00
O11    O     0.23113   0.29193   0.74241   0.01267  Uiso   1.00
O12    O     0.07180   0.29753   0.73999   0.01267  Uiso   1.00
O13    O     0.83280   0.27723   0.37502   0.01267  Uiso   1.00
O14    O     0.95280   0.28387   0.33115   0.01267  Uiso   1.00
O15    O     0.18899   0.71676   0.31540   0.01267  Uiso   1.00
O16    O     0.30620   0.67413   0.29335   0.01267  Uiso   1.00
O17    O     0.86160   0.30567   0.78098   0.01267  Uiso   1.00
O18    O     0.18090   0.19482   0.72670   0.01267  Uiso   1.00
O19    O     0.81188   0.79079   0.73961   0.01267  Uiso   1.00
O20    O     0.97200   0.79248   0.73333   0.01267  Uiso   1.00
O21    O     0.43473   0.21045   0.70509   0.01267  Uiso   1.00
O22    O     0.57579   0.22779   0.73337   0.01267  Uiso   1.00
O23    O     0.76602   0.22284   0.32143   0.01267  Uiso   1.00
O24    O     0.66250   0.17399   0.29705   0.01267  Uiso   1.00
O25    O     0.12820   0.77070   0.36860   0.01267  Uiso   1.00
O26    O     0.00060   0.77779   0.32812   0.01267  Uiso   1.00
O27    O     0.60747   0.30439   0.79627   0.01267  Uiso   1.00
O28    O     0.47060   0.27215   0.77909   0.01267  Uiso   1.00
O29    O     0.23113   0.70807   0.75759   0.01267  Uiso   1.00
O30    O     0.07180   0.70247   0.76001   0.01267  Uiso   1.00
O31    O     0.83280   0.72277   0.12498   0.01267  Uiso   1.00
O32    O     0.95280   0.71613   0.16885   0.01267  Uiso   1.00
O33    O     0.18899   0.28324   0.18460   0.01267  Uiso   1.00
O34    O     0.30620   0.32587   0.20665   0.01267  Uiso   1.00
O35    O     0.86160   0.69433   0.71902   0.01267  Uiso   1.00
O36    O     0.18090   0.80518   0.77330   0.01267  Uiso   1.00
O37    O     0.18812   0.79079   0.23961   0.01267  Uiso   1.00
O38    O     0.02800   0.79248   0.23333   0.01267  Uiso   1.00
O39    O     0.56527   0.21045   0.20509   0.01267  Uiso   1.00
O40    O     0.42421   0.22779   0.23337   0.01267  Uiso   1.00
O41    O     0.23398   0.22284   0.82143   0.01267  Uiso   1.00
O42    O     0.33750   0.17399   0.79705   0.01267  Uiso   1.00
O43    O     0.87180   0.77070   0.86860   0.01267  Uiso   1.00
O44    O     0.99940   0.77779   0.82812   0.01267  Uiso   1.00
O45    O     0.39253   0.30439   0.29627   0.01267  Uiso   1.00
O46    O     0.52940   0.27215   0.27909   0.01267  Uiso   1.00
O47    O     0.76887   0.70807   0.25759   0.01267  Uiso   1.00
O48    O     0.92820   0.70247   0.26001   0.01267  Uiso   1.00
O49    O     0.16720   0.72277   0.62498   0.01267  Uiso   1.00
O50    O     0.04720   0.71613   0.66885   0.01267  Uiso   1.00
O51    O     0.81101   0.28324   0.68460   0.01267  Uiso   1.00
O52    O     0.69380   0.32587   0.70665   0.01267  Uiso   1.00
O53    O     0.13840   0.69433   0.21902   0.01267  Uiso   1.00
O54    O     0.81910   0.80518   0.27330   0.01267  Uiso   1.00
O55    O     0.18812   0.20921   0.26039   0.01267  Uiso   1.00
O56    O     0.02800   0.20752   0.26667   0.01267  Uiso   1.00
O57    O     0.56527   0.78955   0.29491   0.01267  Uiso   1.00
O58    O     0.42421   0.77221   0.26663   0.01267  Uiso   1.00
O59    O     0.23398   0.77716   0.67857   0.01267  Uiso   1.00
O60    O     0.33750   0.82601   0.70295   0.01267  Uiso   1.00
O61    O     0.87180   0.22930   0.63140   0.01267  Uiso   1.00
O62    O     0.99940   0.22221   0.67188   0.01267  Uiso   1.00
O63    O     0.39253   0.69561   0.20373   0.01267  Uiso   1.00
O64    O     0.52940   0.72785   0.22091   0.01267  Uiso   1.00
O65    O     0.76887   0.29193   0.24241   0.01267  Uiso   1.00
O66    O     0.92820   0.29753   0.23999   0.01267  Uiso   1.00
O67    O     0.16720   0.27723   0.87502   0.01267  Uiso   1.00
O68    O     0.04720   0.28387   0.83115   0.01267  Uiso   1.00
O69    O     0.81101   0.71676   0.81540   0.01267  Uiso   1.00
O70    O     0.69380   0.67413   0.79335   0.01267  Uiso   1.00
O71    O     0.13840   0.30567   0.28098   0.01267  Uiso   1.00
O72    O     0.81910   0.19482   0.22670   0.01267  Uiso   1.00
Na17   Na    0.62944   0.24960   0.95925   0.01267  Uiso   1.00
H241   H     0.99150   0.24110   0.91900   0.01267  Uiso   1.00
H242   H     0.10390   0.24930   0.96940   0.01267  Uiso   1.00
H243   H     0.06650   0.23820   0.03230   0.01267  Uiso   1.00
H244   H     0.90330   0.23330   0.05140   0.01267  Uiso   1.00
H245   H     0.76780   0.17200   0.03640   0.01267  Uiso   1.00
H246   H     0.65830   0.18670   0.03430   0.01267  Uiso   1.00
H247   H     0.69820   0.12760   0.99130   0.01267  Uiso   1.00
H248   H     0.76270   0.15980   0.96770   0.01267  Uiso   1.00
H249   H     0.59980   0.12150   0.92620   0.01267  Uiso   1.00
H250   H     0.66430   0.15810   0.90850   0.01267  Uiso   1.00
H251   H     0.50750   0.16020   0.87950   0.01267  Uiso   1.00
H252   H     0.46090   0.16700   0.92220   0.01267  Uiso   1.00
H253   H     0.45770   0.27500   0.89660   0.01267  Uiso   1.00
H254   H     0.40050   0.23360   0.88040   0.01267  Uiso   1.00
H255   H     0.33000   0.26260   0.93600   0.01267  Uiso   1.00
H256   H     0.36850   0.21540   0.94310   0.01267  Uiso   1.00
H257   H     0.26620   0.25210   0.99180   0.01267  Uiso   1.00
H258   H     0.21010   0.24650   0.05510   0.01267  Uiso   1.00
H259   H     0.31500   0.25360   0.10770   0.01267  Uiso   1.00
H260   H     0.47800   0.26350   0.09900   0.01267  Uiso   1.00
H261   H     0.68330   0.28770   0.05180   0.01267  Uiso   1.00
H262   H     0.58650   0.29990   0.07500   0.01267  Uiso   1.00
H263   H     0.63000   0.35730   0.04410   0.01267  Uiso   1.00
H264   H     0.53980   0.33690   0.02140   0.01267  Uiso   1.00
H265   H     0.66640   0.36850   0.96560   0.01267  Uiso   1.00
H266   H     0.60370   0.32970   0.95230   0.01267  Uiso   1.00
H267   H     0.77930   0.34120   0.91750   0.01267  Uiso   1.00
H268   H     0.68080   0.36280   0.90370   0.01267  Uiso   1.00
H269   H     0.72850   0.28520   0.85370   0.01267  Uiso   1.00
H270   H     0.67950   0.24440   0.87100   0.01267  Uiso   1.00
H271   H     0.84510   0.23120   0.87140   0.01267  Uiso   1.00
H272   H     0.86610   0.27670   0.89370   0.01267  Uiso   1.00
C425   C     0.87430   0.23542   0.95605   0.01267  Uiso   1.00
C426   C     0.97270   0.24019   0.94550   0.01267  Uiso   1.00
C427   C     0.03980   0.24350   0.97590   0.01267  Uiso   1.00
C428   C     0.01780   0.23870   0.01320   0.01267  Uiso   1.00
C429   C     0.91950   0.23430   0.02460   0.01267  Uiso   1.00
C430   C     0.84640   0.23139   0.99523   0.01267  Uiso   1.00
C431   C     0.71840   0.18400   0.01940   0.01267  Uiso   1.00
C432   C     0.70600   0.15780   0.98460   0.01267  Uiso   1.00
C433   C     0.60790   0.15280   0.92480   0.01267  Uiso   1.00
C434   C     0.51780   0.17270   0.90630   0.01267  Uiso   1.00
C435   C     0.44040   0.24530   0.90220   0.01267  Uiso   1.00
C436   C     0.38800   0.24500   0.93800   0.01267  Uiso   1.00
C437   C     0.40690   0.25828   0.00830   0.01267  Uiso   1.00
C438   C     0.30830   0.25352   0.01350   0.01267  Uiso   1.00
C439   C     0.27580   0.25100   0.05050   0.01267  Uiso   1.00
C440   C     0.33940   0.25500   0.08200   0.01267  Uiso   1.00
C441   C     0.43630   0.26090   0.07720   0.01267  Uiso   1.00
C442   C     0.47100   0.26290   0.03770   0.01267  Uiso   1.00
C443   C     0.61590   0.29590   0.04880   0.01267  Uiso   1.00
C444   C     0.60730   0.33220   0.02800   0.01267  Uiso   1.00
C445   C     0.66960   0.33720   0.96000   0.01267  Uiso   1.00
C446   C     0.70920   0.33930   0.91810   0.01267  Uiso   1.00
C447   C     0.71980   0.26950   0.87780   0.01267  Uiso   1.00
C448   C     0.82010   0.25280   0.89071   0.01267  Uiso   1.00
O73    O     0.80180   0.23369   0.92882   0.01267  Uiso   1.00
O74    O     0.74900   0.22637   0.00499   0.01267  Uiso   1.00
O75    O     0.62140   0.17205   0.96364   0.01267  Uiso   1.00
O76    O     0.53410   0.21729   0.90533   0.01267  Uiso   1.00
O77    O     0.44440   0.26129   0.96872   0.01267  Uiso   1.00
O78    O     0.56890   0.26700   0.02661   0.01267  Uiso   1.00
O79    O     0.66270   0.32763   0.99260   0.01267  Uiso   1.00
O80    O     0.67220   0.29510   0.90394   0.01267  Uiso   1.00
Na18   Na    0.62944   0.75040   0.54075   0.01267  Uiso   1.00
H273   H     0.99150   0.75890   0.58100   0.01267  Uiso   1.00
H274   H     0.10390   0.75070   0.53060   0.01267  Uiso   1.00
H275   H     0.06650   0.76180   0.46770   0.01267  Uiso   1.00
H276   H     0.90330   0.76670   0.44860   0.01267  Uiso   1.00
H277   H     0.76780   0.82800   0.46360   0.01267  Uiso   1.00
H278   H     0.65830   0.81330   0.46570   0.01267  Uiso   1.00
H279   H     0.69820   0.87240   0.50870   0.01267  Uiso   1.00
H280   H     0.76270   0.84020   0.53230   0.01267  Uiso   1.00
H281   H     0.59980   0.87850   0.57380   0.01267  Uiso   1.00
H282   H     0.66430   0.84190   0.59150   0.01267  Uiso   1.00
H283   H     0.50750   0.83980   0.62050   0.01267  Uiso   1.00
H284   H     0.46090   0.83300   0.57780   0.01267  Uiso   1.00
H285   H     0.45770   0.72500   0.60340   0.01267  Uiso   1.00
H286   H     0.40050   0.76640   0.61960   0.01267  Uiso   1.00
H287   H     0.33000   0.73740   0.56400   0.01267  Uiso   1.00
H288   H     0.36850   0.78460   0.55690   0.01267  Uiso   1.00
H289   H     0.26620   0.74790   0.50820   0.01267  Uiso   1.00
H290   H     0.21010   0.75350   0.44490   0.01267  Uiso   1.00
H291   H     0.31500   0.74640   0.39230   0.01267  Uiso   1.00
H292   H     0.47800   0.73650   0.40100   0.01267  Uiso   1.00
H293   H     0.68330   0.71230   0.44820   0.01267  Uiso   1.00
H294   H     0.58650   0.70010   0.42500   0.01267  Uiso   1.00
H295   H     0.63000   0.64270   0.45590   0.01267  Uiso   1.00
H296   H     0.53980   0.66310   0.47860   0.01267  Uiso   1.00
H297   H     0.66640   0.63150   0.53440   0.01267  Uiso   1.00
H298   H     0.60370   0.67030   0.54770   0.01267  Uiso   1.00
H299   H     0.77930   0.65880   0.58250   0.01267  Uiso   1.00
H300   H     0.68080   0.63720   0.59630   0.01267  Uiso   1.00
H301   H     0.72850   0.71480   0.64630   0.01267  Uiso   1.00
H302   H     0.67950   0.75560   0.62900   0.01267  Uiso   1.00
H303   H     0.84510   0.76880   0.62860   0.01267  Uiso   1.00
H304   H     0.86610   0.72330   0.60630   0.01267  Uiso   1.00
C449   C     0.87430   0.76458   0.54395   0.01267  Uiso   1.00
C450   C     0.97270   0.75981   0.55450   0.01267  Uiso   1.00
C451   C     0.03980   0.75650   0.52410   0.01267  Uiso   1.00
C452   C     0.01780   0.76130   0.48680   0.01267  Uiso   1.00
C453   C     0.91950   0.76570   0.47540   0.01267  Uiso   1.00
C454   C     0.84640   0.76861   0.50477   0.01267  Uiso   1.00
C455   C     0.71840   0.81600   0.48060   0.01267  Uiso   1.00
C456   C     0.70600   0.84220   0.51540   0.01267  Uiso   1.00
C457   C     0.60790   0.84720   0.57520   0.01267  Uiso   1.00
C458   C     0.51780   0.82730   0.59370   0.01267  Uiso   1.00
C459   C     0.44040   0.75470   0.59780   0.01267  Uiso   1.00
C460   C     0.38800   0.75500   0.56200   0.01267  Uiso   1.00
C461   C     0.40690   0.74172   0.49170   0.01267  Uiso   1.00
C462   C     0.30830   0.74648   0.48650   0.01267  Uiso   1.00
C463   C     0.27580   0.74900   0.44950   0.01267  Uiso   1.00
C464   C     0.33940   0.74500   0.41800   0.01267  Uiso   1.00
C465   C     0.43630   0.73910   0.42280   0.01267  Uiso   1.00
C466   C     0.47100   0.73710   0.46230   0.01267  Uiso   1.00
C467   C     0.61590   0.70410   0.45120   0.01267  Uiso   1.00
C468   C     0.60730   0.66780   0.47200   0.01267  Uiso   1.00
C469   C     0.66960   0.66280   0.54000   0.01267  Uiso   1.00
C470   C     0.70920   0.66070   0.58190   0.01267  Uiso   1.00
C471   C     0.71980   0.73050   0.62220   0.01267  Uiso   1.00
C472   C     0.82010   0.74720   0.60929   0.01267  Uiso   1.00
O81    O     0.80180   0.76631   0.57118   0.01267  Uiso   1.00
O82    O     0.74900   0.77363   0.49501   0.01267  Uiso   1.00
O83    O     0.62140   0.82795   0.53636   0.01267  Uiso   1.00
O84    O     0.53410   0.78271   0.59467   0.01267  Uiso   1.00
O85    O     0.44440   0.73871   0.53128   0.01267  Uiso   1.00
O86    O     0.56890   0.73300   0.47339   0.01267  Uiso   1.00
O87    O     0.66270   0.67237   0.50740   0.01267  Uiso   1.00
O88    O     0.67220   0.70490   0.59606   0.01267  Uiso   1.00
Na19   Na    0.37056   0.75040   0.04075   0.01267  Uiso   1.00
H305   H     0.00850   0.75890   0.08100   0.01267  Uiso   1.00
H306   H     0.89610   0.75070   0.03060   0.01267  Uiso   1.00
H307   H     0.93350   0.76180   0.96770   0.01267  Uiso   1.00
H308   H     0.09670   0.76670   0.94860   0.01267  Uiso   1.00
H309   H     0.23220   0.82800   0.96360   0.01267  Uiso   1.00
H310   H     0.34170   0.81330   0.96570   0.01267  Uiso   1.00
H311   H     0.30180   0.87240   0.00870   0.01267  Uiso   1.00
H312   H     0.23730   0.84020   0.03230   0.01267  Uiso   1.00
H313   H     0.40020   0.87850   0.07380   0.01267  Uiso   1.00
H314   H     0.33570   0.84190   0.09150   0.01267  Uiso   1.00
H315   H     0.49250   0.83980   0.12050   0.01267  Uiso   1.00
H316   H     0.53910   0.83300   0.07780   0.01267  Uiso   1.00
H317   H     0.54230   0.72500   0.10340   0.01267  Uiso   1.00
H318   H     0.59950   0.76640   0.11960   0.01267  Uiso   1.00
H319   H     0.67000   0.73740   0.06400   0.01267  Uiso   1.00
H320   H     0.63150   0.78460   0.05690   0.01267  Uiso   1.00
H321   H     0.73380   0.74790   0.00820   0.01267  Uiso   1.00
H322   H     0.78990   0.75350   0.94490   0.01267  Uiso   1.00
H323   H     0.68500   0.74640   0.89230   0.01267  Uiso   1.00
H324   H     0.52200   0.73650   0.90100   0.01267  Uiso   1.00
H325   H     0.31670   0.71230   0.94820   0.01267  Uiso   1.00
H326   H     0.41350   0.70010   0.92500   0.01267  Uiso   1.00
H327   H     0.37000   0.64270   0.95590   0.01267  Uiso   1.00
H328   H     0.46020   0.66310   0.97860   0.01267  Uiso   1.00
H329   H     0.33360   0.63150   0.03440   0.01267  Uiso   1.00
H330   H     0.39630   0.67030   0.04770   0.01267  Uiso   1.00
H331   H     0.22070   0.65880   0.08250   0.01267  Uiso   1.00
H332   H     0.31920   0.63720   0.09630   0.01267  Uiso   1.00
H333   H     0.27150   0.71480   0.14630   0.01267  Uiso   1.00
H334   H     0.32050   0.75560   0.12900   0.01267  Uiso   1.00
H335   H     0.15490   0.76880   0.12860   0.01267  Uiso   1.00
H336   H     0.13390   0.72330   0.10630   0.01267  Uiso   1.00
C473   C     0.12570   0.76458   0.04395   0.01267  Uiso   1.00
C474   C     0.02730   0.75981   0.05450   0.01267  Uiso   1.00
C475   C     0.96020   0.75650   0.02410   0.01267  Uiso   1.00
C476   C     0.98220   0.76130   0.98680   0.01267  Uiso   1.00
C477   C     0.08050   0.76570   0.97540   0.01267  Uiso   1.00
C478   C     0.15360   0.76861   0.00477   0.01267  Uiso   1.00
C479   C     0.28160   0.81600   0.98060   0.01267  Uiso   1.00
C480   C     0.29400   0.84220   0.01540   0.01267  Uiso   1.00
C481   C     0.39210   0.84720   0.07520   0.01267  Uiso   1.00
C482   C     0.48220   0.82730   0.09370   0.01267  Uiso   1.00
C483   C     0.55960   0.75470   0.09780   0.01267  Uiso   1.00
C484   C     0.61200   0.75500   0.06200   0.01267  Uiso   1.00
C485   C     0.59310   0.74172   0.99170   0.01267  Uiso   1.00
C486   C     0.69170   0.74648   0.98650   0.01267  Uiso   1.00
C487   C     0.72420   0.74900   0.94950   0.01267  Uiso   1.00
C488   C     0.66060   0.74500   0.91800   0.01267  Uiso   1.00
C489   C     0.56370   0.73910   0.92280   0.01267  Uiso   1.00
C490   C     0.52900   0.73710   0.96230   0.01267  Uiso   1.00
C491   C     0.38410   0.70410   0.95120   0.01267  Uiso   1.00
C492   C     0.39270   0.66780   0.97200   0.01267  Uiso   1.00
C493   C     0.33040   0.66280   0.04000   0.01267  Uiso   1.00
C494   C     0.29080   0.66070   0.08190   0.01267  Uiso   1.00
C495   C     0.28020   0.73050   0.12220   0.01267  Uiso   1.00
C496   C     0.17990   0.74720   0.10929   0.01267  Uiso   1.00
O89    O     0.19820   0.76631   0.07118   0.01267  Uiso   1.00
O90    O     0.25100   0.77363   0.99501   0.01267  Uiso   1.00
O91    O     0.37860   0.82795   0.03636   0.01267  Uiso   1.00
O92    O     0.46590   0.78271   0.09467   0.01267  Uiso   1.00
O93    O     0.55560   0.73871   0.03128   0.01267  Uiso   1.00
O94    O     0.43110   0.73300   0.97339   0.01267  Uiso   1.00
O95    O     0.33730   0.67237   0.00740   0.01267  Uiso   1.00
O96    O     0.32780   0.70490   0.09606   0.01267  Uiso   1.00
Na20   Na    0.37056   0.24960   0.45925   0.01267  Uiso   1.00
H337   H     0.00850   0.24110   0.41900   0.01267  Uiso   1.00
H338   H     0.89610   0.24930   0.46940   0.01267  Uiso   1.00
H339   H     0.93350   0.23820   0.53230   0.01267  Uiso   1.00
H340   H     0.09670   0.23330   0.55140   0.01267  Uiso   1.00
H341   H     0.23220   0.17200   0.53640   0.01267  Uiso   1.00
H342   H     0.34170   0.18670   0.53430   0.01267  Uiso   1.00
H343   H     0.30180   0.12760   0.49130   0.01267  Uiso   1.00
H344   H     0.23730   0.15980   0.46770   0.01267  Uiso   1.00
H345   H     0.40020   0.12150   0.42620   0.01267  Uiso   1.00
H346   H     0.33570   0.15810   0.40850   0.01267  Uiso   1.00
H347   H     0.49250   0.16020   0.37950   0.01267  Uiso   1.00
H348   H     0.53910   0.16700   0.42220   0.01267  Uiso   1.00
H349   H     0.54230   0.27500   0.39660   0.01267  Uiso   1.00
H350   H     0.59950   0.23360   0.38040   0.01267  Uiso   1.00
H351   H     0.67000   0.26260   0.43600   0.01267  Uiso   1.00
H352   H     0.63150   0.21540   0.44310   0.01267  Uiso   1.00
H353   H     0.73380   0.25210   0.49180   0.01267  Uiso   1.00
H354   H     0.78990   0.24650   0.55510   0.01267  Uiso   1.00
H355   H     0.68500   0.25360   0.60770   0.01267  Uiso   1.00
H356   H     0.52200   0.26350   0.59900   0.01267  Uiso   1.00
H357   H     0.31670   0.28770   0.55180   0.01267  Uiso   1.00
H358   H     0.41350   0.29990   0.57500   0.01267  Uiso   1.00
H359   H     0.37000   0.35730   0.54410   0.01267  Uiso   1.00
H360   H     0.46020   0.33690   0.52140   0.01267  Uiso   1.00
H361   H     0.33360   0.36850   0.46560   0.01267  Uiso   1.00
H362   H     0.39630   0.32970   0.45230   0.01267  Uiso   1.00
H363   H     0.22070   0.34120   0.41750   0.01267  Uiso   1.00
H364   H     0.31920   0.36280   0.40370   0.01267  Uiso   1.00
H365   H     0.27150   0.28520   0.35370   0.01267  Uiso   1.00
H366   H     0.32050   0.24440   0.37100   0.01267  Uiso   1.00
H367   H     0.15490   0.23120   0.37140   0.01267  Uiso   1.00
H368   H     0.13390   0.27670   0.39370   0.01267  Uiso   1.00
C497   C     0.12570   0.23542   0.45605   0.01267  Uiso   1.00
C498   C     0.02730   0.24019   0.44550   0.01267  Uiso   1.00
C499   C     0.96020   0.24350   0.47590   0.01267  Uiso   1.00
C500   C     0.98220   0.23870   0.51320   0.01267  Uiso   1.00
C501   C     0.08050   0.23430   0.52460   0.01267  Uiso   1.00
C502   C     0.15360   0.23139   0.49523   0.01267  Uiso   1.00
C503   C     0.28160   0.18400   0.51940   0.01267  Uiso   1.00
C504   C     0.29400   0.15780   0.48460   0.01267  Uiso   1.00
C505   C     0.39210   0.15280   0.42480   0.01267  Uiso   1.00
C506   C     0.48220   0.17270   0.40630   0.01267  Uiso   1.00
C507   C     0.55960   0.24530   0.40220   0.01267  Uiso   1.00
C508   C     0.61200   0.24500   0.43800   0.01267  Uiso   1.00
C509   C     0.59310   0.25828   0.50830   0.01267  Uiso   1.00
C510   C     0.69170   0.25352   0.51350   0.01267  Uiso   1.00
C511   C     0.72420   0.25100   0.55050   0.01267  Uiso   1.00
C512   C     0.66060   0.25500   0.58200   0.01267  Uiso   1.00
C513   C     0.56370   0.26090   0.57720   0.01267  Uiso   1.00
C514   C     0.52900   0.26290   0.53770   0.01267  Uiso   1.00
C515   C     0.38410   0.29590   0.54880   0.01267  Uiso   1.00
C516   C     0.39270   0.33220   0.52800   0.01267  Uiso   1.00
C517   C     0.33040   0.33720   0.46000   0.01267  Uiso   1.00
C518   C     0.29080   0.33930   0.41810   0.01267  Uiso   1.00
C519   C     0.28020   0.26950   0.37780   0.01267  Uiso   1.00
C520   C     0.17990   0.25280   0.39071   0.01267  Uiso   1.00
O97    O     0.19820   0.23369   0.42882   0.01267  Uiso   1.00
O98    O     0.25100   0.22637   0.50499   0.01267  Uiso   1.00
O99    O     0.37860   0.17205   0.46364   0.01267  Uiso   1.00
O100   O     0.46590   0.21729   0.40533   0.01267  Uiso   1.00
O101   O     0.55560   0.26129   0.46872   0.01267  Uiso   1.00
O102   O     0.43110   0.26700   0.52661   0.01267  Uiso   1.00
O103   O     0.33730   0.32763   0.49260   0.01267  Uiso   1.00
O104   O     0.32780   0.29510   0.40394   0.01267  Uiso   1.00
