data_FISPIH_clean
_audit_creation_date              2014-07-02
_audit_creation_method            'Materials Studio'
_symmetry_space_group_name_H-M    'P1'
_symmetry_Int_Tables_number       1
_symmetry_cell_setting            triclinic
loop_
_symmetry_equiv_pos_as_xyz
  x,y,z
_cell_length_a                    24.5773
_cell_length_b                    33.5933
_cell_length_c                    33.6567
_cell_angle_alpha                 97.7110
_cell_angle_beta                  90.0000
_cell_angle_gamma                 90.0000
loop_
_atom_site_label
_atom_site_type_symbol
_atom_site_fract_x
_atom_site_fract_y
_atom_site_fract_z
_atom_site_U_iso_or_equiv
_atom_site_adp_type
_atom_site_occupancy
Ni1    Ni    0.80278   0.25993   0.11764   0.01267  Uiso   1.00
Ni2    Ni    0.22929   0.51439   0.35677   0.01267  Uiso   1.00
Ni3    Ni    0.29429   0.00235   0.36312   0.01267  Uiso   1.00
Ni4    Ni    0.71064   0.76398   0.12455   0.01267  Uiso   1.00
Ni5    Ni    0.69722   0.25993   0.61764   0.01267  Uiso   1.00
Ni6    Ni    0.27071   0.51439   0.85677   0.01267  Uiso   1.00
Ni7    Ni    0.20571   0.00235   0.86312   0.01267  Uiso   1.00
Ni8    Ni    0.78936   0.76398   0.62455   0.01267  Uiso   1.00
H1     H     0.98330   0.76520   0.29340   0.01267  Uiso   1.00
H2     H     0.93850   0.74590   0.31820   0.01267  Uiso   1.00
H3     H     0.00650   0.83460   0.36180   0.01267  Uiso   1.00
H4     H     0.05430   0.81380   0.38220   0.01267  Uiso   1.00
H5     H     0.01330   0.71450   0.34250   0.01267  Uiso   1.00
H6     H     0.06230   0.74040   0.33040   0.01267  Uiso   1.00
H7     H     0.98650   0.78800   0.41820   0.01267  Uiso   1.00
H8     H     0.93550   0.79900   0.39350   0.01267  Uiso   1.00
H9     H     0.90490   0.74770   0.25850   0.01267  Uiso   1.00
H10    H     0.83410   0.75010   0.21450   0.01267  Uiso   1.00
H11    H     0.80060   0.86400   0.25890   0.01267  Uiso   1.00
H12    H     0.86820   0.86140   0.30540   0.01267  Uiso   1.00
H13    H     0.12960   0.82220   0.26820   0.01267  Uiso   1.00
H14    H     0.19880   0.87130   0.26660   0.01267  Uiso   1.00
H15    H     0.16500   0.91610   0.37670   0.01267  Uiso   1.00
H16    H     0.09430   0.87310   0.38030   0.01267  Uiso   1.00
H17    H     0.09620   0.68090   0.33070   0.01267  Uiso   1.00
H18    H     0.14790   0.62530   0.33740   0.01267  Uiso   1.00
H19    H     0.12510   0.64760   0.45740   0.01267  Uiso   1.00
H20    H     0.08270   0.70600   0.44640   0.01267  Uiso   1.00
H21    H     0.93790   0.68000   0.43090   0.01267  Uiso   1.00
H22    H     0.89520   0.66950   0.48920   0.01267  Uiso   1.00
H23    H     0.86530   0.78650   0.51530   0.01267  Uiso   1.00
H24    H     0.89740   0.79460   0.45290   0.01267  Uiso   1.00
H25    H     0.44550   0.31350   0.37190   0.01267  Uiso   1.00
H26    H     0.48900   0.33470   0.34770   0.01267  Uiso   1.00
H27    H     0.55050   0.24310   0.30060   0.01267  Uiso   1.00
H28    H     0.50800   0.27000   0.28170   0.01267  Uiso   1.00
H29    H     0.43190   0.23930   0.35510   0.01267  Uiso   1.00
H30    H     0.44640   0.23160   0.30920   0.01267  Uiso   1.00
H31    H     0.56550   0.25330   0.37240   0.01267  Uiso   1.00
H32    H     0.55340   0.29940   0.38430   0.01267  Uiso   1.00
H33    H     0.41170   0.37300   0.36790   0.01267  Uiso   1.00
H34    H     0.34920   0.42240   0.36640   0.01267  Uiso   1.00
H35    H     0.30070   0.37090   0.25740   0.01267  Uiso   1.00
H36    H     0.35790   0.31920   0.26280   0.01267  Uiso   1.00
H37    H     0.63620   0.35410   0.29970   0.01267  Uiso   1.00
H38    H     0.71060   0.35600   0.25810   0.01267  Uiso   1.00
H39    H     0.66420   0.25040   0.19760   0.01267  Uiso   1.00
H40    H     0.59260   0.24800   0.24440   0.01267  Uiso   1.00
H41    H     0.39420   0.17590   0.32720   0.01267  Uiso   1.00
H42    H     0.35130   0.11790   0.34370   0.01267  Uiso   1.00
H43    H     0.48600   0.09590   0.39990   0.01267  Uiso   1.00
H44    H     0.52480   0.15180   0.38670   0.01267  Uiso   1.00
H45    H     0.46980   0.22470   0.46110   0.01267  Uiso   1.00
H46    H     0.50780   0.21050   0.52060   0.01267  Uiso   1.00
H47    H     0.64180   0.27400   0.49780   0.01267  Uiso   1.00
H48    H     0.60470   0.28340   0.43560   0.01267  Uiso   1.00
H49    H     0.31930   0.57720   0.38600   0.01267  Uiso   1.00
H50    H     0.36890   0.55330   0.36720   0.01267  Uiso   1.00
H51    H     0.34340   0.50140   0.39600   0.01267  Uiso   1.00
H52    H     0.36480   0.53880   0.42300   0.01267  Uiso   1.00
H53    H     0.31100   0.49840   0.45370   0.01267  Uiso   1.00
H54    H     0.29020   0.54340   0.45880   0.01267  Uiso   1.00
H55    H     0.18330   0.49710   0.45210   0.01267  Uiso   1.00
H56    H     0.22130   0.45940   0.44410   0.01267  Uiso   1.00
H57    H     0.18230   0.43780   0.38400   0.01267  Uiso   1.00
H58    H     0.13170   0.45580   0.40880   0.01267  Uiso   1.00
H59    H     0.13940   0.44600   0.32460   0.01267  Uiso   1.00
H60    H     0.08770   0.46660   0.34600   0.01267  Uiso   1.00
H61    H     0.09990   0.48530   0.28540   0.01267  Uiso   1.00
H62    H     0.09890   0.52090   0.31940   0.01267  Uiso   1.00
H63    H     0.15960   0.50850   0.25790   0.01267  Uiso   1.00
H64    H     0.15030   0.54760   0.28800   0.01267  Uiso   1.00
H65    H     0.26190   0.53970   0.25290   0.01267  Uiso   1.00
H66    H     0.22400   0.57430   0.27400   0.01267  Uiso   1.00
H67    H     0.32270   0.56560   0.29460   0.01267  Uiso   1.00
H68    H     0.27990   0.58950   0.32210   0.01267  Uiso   1.00
H69    H     0.74940   0.65610   0.13460   0.01267  Uiso   1.00
H70    H     0.77240   0.69250   0.16380   0.01267  Uiso   1.00
H71    H     0.82900   0.67620   0.11170   0.01267  Uiso   1.00
H72    H     0.78250   0.68050   0.08140   0.01267  Uiso   1.00
H73    H     0.83540   0.74350   0.12590   0.01267  Uiso   1.00
H74    H     0.84570   0.72820   0.08050   0.01267  Uiso   1.00
H75    H     0.81430   0.80570   0.06670   0.01267  Uiso   1.00
H76    H     0.80930   0.81400   0.11350   0.01267  Uiso   1.00
H77    H     0.74710   0.85660   0.08590   0.01267  Uiso   1.00
H78    H     0.72000   0.81940   0.05980   0.01267  Uiso   1.00
H79    H     0.65090   0.86760   0.10920   0.01267  Uiso   1.00
H80    H     0.63490   0.82620   0.08430   0.01267  Uiso   1.00
H81    H     0.62920   0.84220   0.16770   0.01267  Uiso   1.00
H82    H     0.57900   0.84510   0.14010   0.01267  Uiso   1.00
H83    H     0.56910   0.79120   0.17020   0.01267  Uiso   1.00
H84    H     0.57990   0.77620   0.12460   0.01267  Uiso   1.00
H85    H     0.60720   0.73040   0.19720   0.01267  Uiso   1.00
H86    H     0.59580   0.71470   0.15150   0.01267  Uiso   1.00
H87    H     0.69580   0.71580   0.19130   0.01267  Uiso   1.00
H88    H     0.66610   0.67760   0.17030   0.01267  Uiso   1.00
H89    H     0.73520   0.32620   0.04620   0.01267  Uiso   1.00
H90    H     0.78890   0.30080   0.03820   0.01267  Uiso   1.00
H91    H     0.80140   0.36770   0.06870   0.01267  Uiso   1.00
H92    H     0.77260   0.35570   0.10660   0.01267  Uiso   1.00
H93    H     0.86520   0.36200   0.11140   0.01267  Uiso   1.00
H94    H     0.87060   0.32390   0.07930   0.01267  Uiso   1.00
H95    H     0.92110   0.29180   0.13020   0.01267  Uiso   1.00
H96    H     0.90990   0.32560   0.16620   0.01267  Uiso   1.00
H97    H     0.86210   0.28170   0.19840   0.01267  Uiso   1.00
H98    H     0.92060   0.26440   0.18800   0.01267  Uiso   1.00
H99    H     0.81630   0.21910   0.19680   0.01267  Uiso   1.00
H100   H     0.87090   0.19480   0.19010   0.01267  Uiso   1.00
H101   H     0.83620   0.16180   0.13040   0.01267  Uiso   1.00
H102   H     0.80490   0.15180   0.16800   0.01267  Uiso   1.00
H103   H     0.73510   0.19000   0.15270   0.01267  Uiso   1.00
H104   H     0.74700   0.15340   0.12020   0.01267  Uiso   1.00
H105   H     0.69340   0.19650   0.06450   0.01267  Uiso   1.00
H106   H     0.68120   0.22590   0.10380   0.01267  Uiso   1.00
H107   H     0.68160   0.26240   0.05330   0.01267  Uiso   1.00
H108   H     0.73710   0.24380   0.03720   0.01267  Uiso   1.00
H109   H     0.24210   0.95960   0.43600   0.01267  Uiso   1.00
H110   H     0.25690   0.99190   0.47250   0.01267  Uiso   1.00
H111   H     0.34830   0.98560   0.45560   0.01267  Uiso   1.00
H112   H     0.32400   0.94540   0.46610   0.01267  Uiso   1.00
H113   H     0.37740   0.92810   0.41540   0.01267  Uiso   1.00
H114   H     0.31850   0.92340   0.39780   0.01267  Uiso   1.00
H115   H     0.41700   0.94020   0.34510   0.01267  Uiso   1.00
H116   H     0.35810   0.92770   0.33090   0.01267  Uiso   1.00
H117   H     0.39690   0.96120   0.28560   0.01267  Uiso   1.00
H118   H     0.40950   0.99800   0.31860   0.01267  Uiso   1.00
H119   H     0.34770   0.04830   0.29580   0.01267  Uiso   1.00
H120   H     0.33430   0.01990   0.25620   0.01267  Uiso   1.00
H121   H     0.26780   0.06430   0.26460   0.01267  Uiso   1.00
H122   H     0.24330   0.02350   0.27270   0.01267  Uiso   1.00
H123   H     0.20960   0.07790   0.31140   0.01267  Uiso   1.00
H124   H     0.26680   0.08450   0.33190   0.01267  Uiso   1.00
H125   H     0.22430   0.07990   0.39620   0.01267  Uiso   1.00
H126   H     0.16630   0.06300   0.38320   0.01267  Uiso   1.00
H127   H     0.18430   0.00450   0.40690   0.01267  Uiso   1.00
H128   H     0.19520   0.03980   0.44130   0.01267  Uiso   1.00
H129   H     0.51670   0.76520   0.79340   0.01267  Uiso   1.00
H130   H     0.56150   0.74590   0.81820   0.01267  Uiso   1.00
H131   H     0.49350   0.83460   0.86180   0.01267  Uiso   1.00
H132   H     0.44570   0.81380   0.88220   0.01267  Uiso   1.00
H133   H     0.48670   0.71450   0.84250   0.01267  Uiso   1.00
H134   H     0.43770   0.74040   0.83040   0.01267  Uiso   1.00
H135   H     0.51350   0.78800   0.91820   0.01267  Uiso   1.00
H136   H     0.56450   0.79900   0.89350   0.01267  Uiso   1.00
H137   H     0.59510   0.74770   0.75850   0.01267  Uiso   1.00
H138   H     0.66590   0.75010   0.71450   0.01267  Uiso   1.00
H139   H     0.69940   0.86400   0.75890   0.01267  Uiso   1.00
H140   H     0.63180   0.86140   0.80540   0.01267  Uiso   1.00
H141   H     0.37040   0.82220   0.76820   0.01267  Uiso   1.00
H142   H     0.30120   0.87130   0.76660   0.01267  Uiso   1.00
H143   H     0.33500   0.91610   0.87670   0.01267  Uiso   1.00
H144   H     0.40570   0.87310   0.88030   0.01267  Uiso   1.00
H145   H     0.40380   0.68090   0.83070   0.01267  Uiso   1.00
H146   H     0.35210   0.62530   0.83740   0.01267  Uiso   1.00
H147   H     0.37490   0.64760   0.95740   0.01267  Uiso   1.00
H148   H     0.41730   0.70600   0.94640   0.01267  Uiso   1.00
H149   H     0.56210   0.68000   0.93090   0.01267  Uiso   1.00
H150   H     0.60480   0.66950   0.98920   0.01267  Uiso   1.00
H151   H     0.63470   0.78650   0.01530   0.01267  Uiso   1.00
H152   H     0.60260   0.79460   0.95290   0.01267  Uiso   1.00
H153   H     0.05450   0.31350   0.87190   0.01267  Uiso   1.00
H154   H     0.01100   0.33470   0.84770   0.01267  Uiso   1.00
H155   H     0.94950   0.24310   0.80060   0.01267  Uiso   1.00
H156   H     0.99200   0.27000   0.78170   0.01267  Uiso   1.00
H157   H     0.06810   0.23930   0.85510   0.01267  Uiso   1.00
H158   H     0.05360   0.23160   0.80920   0.01267  Uiso   1.00
H159   H     0.93450   0.25330   0.87240   0.01267  Uiso   1.00
H160   H     0.94660   0.29940   0.88430   0.01267  Uiso   1.00
H161   H     0.08830   0.37300   0.86790   0.01267  Uiso   1.00
H162   H     0.15080   0.42240   0.86640   0.01267  Uiso   1.00
H163   H     0.19930   0.37090   0.75740   0.01267  Uiso   1.00
H164   H     0.14210   0.31920   0.76280   0.01267  Uiso   1.00
H165   H     0.86380   0.35410   0.79970   0.01267  Uiso   1.00
H166   H     0.78940   0.35600   0.75810   0.01267  Uiso   1.00
H167   H     0.83580   0.25040   0.69760   0.01267  Uiso   1.00
H168   H     0.90740   0.24800   0.74440   0.01267  Uiso   1.00
H169   H     0.10580   0.17590   0.82720   0.01267  Uiso   1.00
H170   H     0.14870   0.11790   0.84370   0.01267  Uiso   1.00
H171   H     0.01400   0.09590   0.89990   0.01267  Uiso   1.00
H172   H     0.97520   0.15180   0.88670   0.01267  Uiso   1.00
H173   H     0.03020   0.22470   0.96110   0.01267  Uiso   1.00
H174   H     0.99220   0.21050   0.02060   0.01267  Uiso   1.00
H175   H     0.85820   0.27400   0.99780   0.01267  Uiso   1.00
H176   H     0.89530   0.28340   0.93560   0.01267  Uiso   1.00
H177   H     0.18070   0.57720   0.88600   0.01267  Uiso   1.00
H178   H     0.13110   0.55330   0.86720   0.01267  Uiso   1.00
H179   H     0.15660   0.50140   0.89600   0.01267  Uiso   1.00
H180   H     0.13520   0.53880   0.92300   0.01267  Uiso   1.00
H181   H     0.18900   0.49840   0.95370   0.01267  Uiso   1.00
H182   H     0.20980   0.54340   0.95880   0.01267  Uiso   1.00
H183   H     0.31670   0.49710   0.95210   0.01267  Uiso   1.00
H184   H     0.27870   0.45940   0.94410   0.01267  Uiso   1.00
H185   H     0.31770   0.43780   0.88400   0.01267  Uiso   1.00
H186   H     0.36830   0.45580   0.90880   0.01267  Uiso   1.00
H187   H     0.36060   0.44600   0.82460   0.01267  Uiso   1.00
H188   H     0.41230   0.46660   0.84600   0.01267  Uiso   1.00
H189   H     0.40010   0.48530   0.78540   0.01267  Uiso   1.00
H190   H     0.40110   0.52090   0.81940   0.01267  Uiso   1.00
H191   H     0.34040   0.50850   0.75790   0.01267  Uiso   1.00
H192   H     0.34970   0.54760   0.78800   0.01267  Uiso   1.00
H193   H     0.23810   0.53970   0.75290   0.01267  Uiso   1.00
H194   H     0.27600   0.57430   0.77400   0.01267  Uiso   1.00
H195   H     0.17730   0.56560   0.79460   0.01267  Uiso   1.00
H196   H     0.22010   0.58950   0.82210   0.01267  Uiso   1.00
H197   H     0.75060   0.65610   0.63460   0.01267  Uiso   1.00
H198   H     0.72760   0.69250   0.66380   0.01267  Uiso   1.00
H199   H     0.67100   0.67620   0.61170   0.01267  Uiso   1.00
H200   H     0.71750   0.68050   0.58140   0.01267  Uiso   1.00
H201   H     0.66460   0.74350   0.62590   0.01267  Uiso   1.00
H202   H     0.65430   0.72820   0.58050   0.01267  Uiso   1.00
H203   H     0.68570   0.80570   0.56670   0.01267  Uiso   1.00
H204   H     0.69070   0.81400   0.61350   0.01267  Uiso   1.00
H205   H     0.75290   0.85660   0.58590   0.01267  Uiso   1.00
H206   H     0.78000   0.81940   0.55980   0.01267  Uiso   1.00
H207   H     0.84910   0.86760   0.60920   0.01267  Uiso   1.00
H208   H     0.86510   0.82620   0.58430   0.01267  Uiso   1.00
H209   H     0.87080   0.84220   0.66770   0.01267  Uiso   1.00
H210   H     0.92100   0.84510   0.64010   0.01267  Uiso   1.00
H211   H     0.93090   0.79120   0.67020   0.01267  Uiso   1.00
H212   H     0.92010   0.77620   0.62460   0.01267  Uiso   1.00
H213   H     0.89280   0.73040   0.69720   0.01267  Uiso   1.00
H214   H     0.90420   0.71470   0.65150   0.01267  Uiso   1.00
H215   H     0.80420   0.71580   0.69130   0.01267  Uiso   1.00
H216   H     0.83390   0.67760   0.67030   0.01267  Uiso   1.00
H217   H     0.76480   0.32620   0.54620   0.01267  Uiso   1.00
H218   H     0.71110   0.30080   0.53820   0.01267  Uiso   1.00
H219   H     0.69860   0.36770   0.56870   0.01267  Uiso   1.00
H220   H     0.72740   0.35570   0.60660   0.01267  Uiso   1.00
H221   H     0.63480   0.36200   0.61140   0.01267  Uiso   1.00
H222   H     0.62940   0.32390   0.57930   0.01267  Uiso   1.00
H223   H     0.57890   0.29180   0.63020   0.01267  Uiso   1.00
H224   H     0.59010   0.32560   0.66620   0.01267  Uiso   1.00
H225   H     0.63790   0.28170   0.69840   0.01267  Uiso   1.00
H226   H     0.57940   0.26440   0.68800   0.01267  Uiso   1.00
H227   H     0.68370   0.21910   0.69680   0.01267  Uiso   1.00
H228   H     0.62910   0.19480   0.69010   0.01267  Uiso   1.00
H229   H     0.66380   0.16180   0.63040   0.01267  Uiso   1.00
H230   H     0.69510   0.15180   0.66800   0.01267  Uiso   1.00
H231   H     0.76490   0.19000   0.65270   0.01267  Uiso   1.00
H232   H     0.75300   0.15340   0.62020   0.01267  Uiso   1.00
H233   H     0.80660   0.19650   0.56450   0.01267  Uiso   1.00
H234   H     0.81880   0.22590   0.60380   0.01267  Uiso   1.00
H235   H     0.81840   0.26240   0.55330   0.01267  Uiso   1.00
H236   H     0.76290   0.24380   0.53720   0.01267  Uiso   1.00
H237   H     0.25790   0.95960   0.93600   0.01267  Uiso   1.00
H238   H     0.24310   0.99190   0.97250   0.01267  Uiso   1.00
H239   H     0.15170   0.98560   0.95560   0.01267  Uiso   1.00
H240   H     0.17600   0.94540   0.96610   0.01267  Uiso   1.00
H241   H     0.12260   0.92810   0.91540   0.01267  Uiso   1.00
H242   H     0.18150   0.92340   0.89780   0.01267  Uiso   1.00
H243   H     0.08300   0.94020   0.84510   0.01267  Uiso   1.00
H244   H     0.14190   0.92770   0.83090   0.01267  Uiso   1.00
H245   H     0.10310   0.96120   0.78560   0.01267  Uiso   1.00
H246   H     0.09050   0.99800   0.81860   0.01267  Uiso   1.00
H247   H     0.15230   0.04830   0.79580   0.01267  Uiso   1.00
H248   H     0.16570   0.01990   0.75620   0.01267  Uiso   1.00
H249   H     0.23220   0.06430   0.76460   0.01267  Uiso   1.00
H250   H     0.25670   0.02350   0.77270   0.01267  Uiso   1.00
H251   H     0.29040   0.07790   0.81140   0.01267  Uiso   1.00
H252   H     0.23320   0.08450   0.83190   0.01267  Uiso   1.00
H253   H     0.27570   0.07990   0.89620   0.01267  Uiso   1.00
H254   H     0.33370   0.06300   0.88320   0.01267  Uiso   1.00
H255   H     0.31570   0.00450   0.90690   0.01267  Uiso   1.00
H256   H     0.30480   0.03980   0.94130   0.01267  Uiso   1.00
C1     C     0.99970   0.77430   0.35510   0.01267  Uiso   1.00
C2     C     0.96170   0.76920   0.31770   0.01267  Uiso   1.00
C3     C     0.03110   0.81190   0.35860   0.01267  Uiso   1.00
C4     C     0.03500   0.73820   0.35090   0.01267  Uiso   1.00
C5     C     0.96390   0.77930   0.39500   0.01267  Uiso   1.00
C6     C     0.89100   0.80470   0.28950   0.01267  Uiso   1.00
C7     C     0.88310   0.77040   0.25950   0.01267  Uiso   1.00
C8     C     0.84210   0.77290   0.23240   0.01267  Uiso   1.00
C9     C     0.81290   0.80610   0.23030   0.01267  Uiso   1.00
C10    C     0.82140   0.84080   0.25920   0.01267  Uiso   1.00
C11    C     0.86110   0.83870   0.28710   0.01267  Uiso   1.00
C12    C     0.76800   0.80940   0.19820   0.01267  Uiso   1.00
C13    C     0.10380   0.84150   0.32460   0.01267  Uiso   1.00
C14    C     0.13550   0.84140   0.29040   0.01267  Uiso   1.00
C15    C     0.17760   0.87120   0.28950   0.01267  Uiso   1.00
C16    C     0.18640   0.89860   0.32130   0.01267  Uiso   1.00
C17    C     0.15680   0.89770   0.35420   0.01267  Uiso   1.00
C18    C     0.11510   0.87130   0.35700   0.01267  Uiso   1.00
C19    C     0.23220   0.92750   0.31850   0.01267  Uiso   1.00
C20    C     0.09030   0.69960   0.38800   0.01267  Uiso   1.00
C21    C     0.10560   0.67520   0.35610   0.01267  Uiso   1.00
C22    C     0.13540   0.64140   0.36020   0.01267  Uiso   1.00
C23    C     0.14680   0.63080   0.39620   0.01267  Uiso   1.00
C24    C     0.12270   0.65520   0.43180   0.01267  Uiso   1.00
C25    C     0.09670   0.68910   0.42470   0.01267  Uiso   1.00
C26    C     0.17500   0.59180   0.40250   0.01267  Uiso   1.00
C27    C     0.91980   0.73660   0.43480   0.01267  Uiso   1.00
C28    C     0.92060   0.70130   0.44650   0.01267  Uiso   1.00
C29    C     0.89570   0.69530   0.48200   0.01267  Uiso   1.00
C30    C     0.87140   0.72640   0.50760   0.01267  Uiso   1.00
C31    C     0.87630   0.76430   0.49760   0.01267  Uiso   1.00
C32    C     0.89750   0.76920   0.46090   0.01267  Uiso   1.00
C33    C     0.84940   0.72090   0.54800   0.01267  Uiso   1.00
C34    C     0.50010   0.27250   0.34140   0.01267  Uiso   1.00
C35    C     0.46550   0.31140   0.34690   0.01267  Uiso   1.00
C36    C     0.53200   0.26880   0.30440   0.01267  Uiso   1.00
C37    C     0.46160   0.23540   0.33600   0.01267  Uiso   1.00
C38    C     0.53680   0.27320   0.37770   0.01267  Uiso   1.00
C39    C     0.39390   0.34150   0.31520   0.01267  Uiso   1.00
C40    C     0.38900   0.37230   0.34570   0.01267  Uiso   1.00
C41    C     0.35140   0.40220   0.34470   0.01267  Uiso   1.00
C42    C     0.31740   0.40350   0.31320   0.01267  Uiso   1.00
C43    C     0.32200   0.37090   0.28020   0.01267  Uiso   1.00
C44    C     0.35740   0.34110   0.28290   0.01267  Uiso   1.00
C45    C     0.27750   0.43590   0.30960   0.01267  Uiso   1.00
C46    C     0.61110   0.30110   0.27770   0.01267  Uiso   1.00
C47    C     0.64300   0.33240   0.28010   0.01267  Uiso   1.00
C48    C     0.68690   0.33420   0.25410   0.01267  Uiso   1.00
C49    C     0.69640   0.30230   0.22060   0.01267  Uiso   1.00
C50    C     0.66050   0.27140   0.21840   0.01267  Uiso   1.00
C51    C     0.61650   0.26960   0.24680   0.01267  Uiso   1.00
C52    C     0.74060   0.30210   0.19300   0.01267  Uiso   1.00
C53    C     0.46490   0.17090   0.35410   0.01267  Uiso   1.00
C54    C     0.41330   0.15960   0.34260   0.01267  Uiso   1.00
C55    C     0.38640   0.12450   0.35250   0.01267  Uiso   1.00
C56    C     0.41430   0.10160   0.37510   0.01267  Uiso   1.00
C57    C     0.46600   0.11270   0.38560   0.01267  Uiso   1.00
C58    C     0.49000   0.14560   0.37700   0.01267  Uiso   1.00
C59    C     0.38050   0.06280   0.38560   0.01267  Uiso   1.00
C60    C     0.53180   0.25690   0.44470   0.01267  Uiso   1.00
C61    C     0.50440   0.23420   0.46850   0.01267  Uiso   1.00
C62    C     0.52710   0.22500   0.50370   0.01267  Uiso   1.00
C63    C     0.58280   0.23890   0.51350   0.01267  Uiso   1.00
C64    C     0.60840   0.26260   0.48990   0.01267  Uiso   1.00
C65    C     0.58510   0.27000   0.45350   0.01267  Uiso   1.00
C66    C     0.60670   0.23190   0.55070   0.01267  Uiso   1.00
C67    C     0.33120   0.55050   0.37490   0.01267  Uiso   1.00
C68    C     0.33280   0.52800   0.40840   0.01267  Uiso   1.00
C69    C     0.29700   0.51970   0.43970   0.01267  Uiso   1.00
C70    C     0.20480   0.48090   0.43180   0.01267  Uiso   1.00
C71    C     0.16650   0.46240   0.39770   0.01267  Uiso   1.00
C72    C     0.12410   0.47140   0.33650   0.01267  Uiso   1.00
C73    C     0.12190   0.49940   0.30680   0.01267  Uiso   1.00
C74    C     0.16090   0.51960   0.28610   0.01267  Uiso   1.00
C75    C     0.24600   0.55130   0.27820   0.01267  Uiso   1.00
C76    C     0.28940   0.56270   0.30940   0.01267  Uiso   1.00
C77    C     0.75690   0.68470   0.13740   0.01267  Uiso   1.00
C78    C     0.79740   0.69220   0.10700   0.01267  Uiso   1.00
C79    C     0.81800   0.73160   0.10130   0.01267  Uiso   1.00
C80    C     0.79040   0.80330   0.08910   0.01267  Uiso   1.00
C81    C     0.73810   0.82840   0.08500   0.01267  Uiso   1.00
C82    C     0.64900   0.83880   0.10990   0.01267  Uiso   1.00
C83    C     0.61230   0.83020   0.14290   0.01267  Uiso   1.00
C84    C     0.59610   0.78980   0.14900   0.01267  Uiso   1.00
C85    C     0.62230   0.72770   0.17030   0.01267  Uiso   1.00
C86    C     0.67440   0.70540   0.16790   0.01267  Uiso   1.00
C87    C     0.76550   0.31440   0.05900   0.01267  Uiso   1.00
C88    C     0.79600   0.34570   0.08430   0.01267  Uiso   1.00
C89    C     0.84780   0.33700   0.10070   0.01267  Uiso   1.00
C90    C     0.89490   0.30160   0.15080   0.01267  Uiso   1.00
C91    C     0.88640   0.27160   0.17670   0.01267  Uiso   1.00
C92    C     0.84070   0.20580   0.17660   0.01267  Uiso   1.00
C93    C     0.81120   0.17280   0.15130   0.01267  Uiso   1.00
C94    C     0.76080   0.17930   0.13220   0.01267  Uiso   1.00
C95    C     0.70780   0.21880   0.08280   0.01267  Uiso   1.00
C96    C     0.71660   0.25270   0.06140   0.01267  Uiso   1.00
C97    C     0.26740   0.98100   0.44540   0.01267  Uiso   1.00
C98    C     0.32360   0.96380   0.44630   0.01267  Uiso   1.00
C99    C     0.34520   0.94280   0.40930   0.01267  Uiso   1.00
C100   C     0.38090   0.95050   0.34090   0.01267  Uiso   1.00
C101   C     0.38440   0.97610   0.31060   0.01267  Uiso   1.00
C102   C     0.32280   0.02780   0.28370   0.01267  Uiso   1.00
C103   C     0.26740   0.04510   0.28360   0.01267  Uiso   1.00
C104   C     0.24230   0.06430   0.31870   0.01267  Uiso   1.00
C105   C     0.20410   0.05570   0.38670   0.01267  Uiso   1.00
C106   C     0.20800   0.02710   0.41540   0.01267  Uiso   1.00
C107   C     0.50030   0.77430   0.85510   0.01267  Uiso   1.00
C108   C     0.53830   0.76920   0.81770   0.01267  Uiso   1.00
C109   C     0.46890   0.81190   0.85860   0.01267  Uiso   1.00
C110   C     0.46500   0.73820   0.85090   0.01267  Uiso   1.00
C111   C     0.53610   0.77930   0.89500   0.01267  Uiso   1.00
C112   C     0.60900   0.80470   0.78950   0.01267  Uiso   1.00
C113   C     0.61690   0.77040   0.75950   0.01267  Uiso   1.00
C114   C     0.65790   0.77290   0.73240   0.01267  Uiso   1.00
C115   C     0.68710   0.80610   0.73030   0.01267  Uiso   1.00
C116   C     0.67860   0.84080   0.75920   0.01267  Uiso   1.00
C117   C     0.63890   0.83870   0.78710   0.01267  Uiso   1.00
C118   C     0.73200   0.80940   0.69820   0.01267  Uiso   1.00
C119   C     0.39620   0.84150   0.82460   0.01267  Uiso   1.00
C120   C     0.36450   0.84140   0.79040   0.01267  Uiso   1.00
C121   C     0.32240   0.87120   0.78950   0.01267  Uiso   1.00
C122   C     0.31360   0.89860   0.82130   0.01267  Uiso   1.00
C123   C     0.34320   0.89770   0.85420   0.01267  Uiso   1.00
C124   C     0.38490   0.87130   0.85700   0.01267  Uiso   1.00
C125   C     0.26780   0.92750   0.81850   0.01267  Uiso   1.00
C126   C     0.40970   0.69960   0.88800   0.01267  Uiso   1.00
C127   C     0.39440   0.67520   0.85610   0.01267  Uiso   1.00
C128   C     0.36460   0.64140   0.86020   0.01267  Uiso   1.00
C129   C     0.35320   0.63080   0.89620   0.01267  Uiso   1.00
C130   C     0.37730   0.65520   0.93180   0.01267  Uiso   1.00
C131   C     0.40330   0.68910   0.92470   0.01267  Uiso   1.00
C132   C     0.32500   0.59180   0.90250   0.01267  Uiso   1.00
C133   C     0.58020   0.73660   0.93480   0.01267  Uiso   1.00
C134   C     0.57940   0.70130   0.94650   0.01267  Uiso   1.00
C135   C     0.60430   0.69530   0.98200   0.01267  Uiso   1.00
C136   C     0.62860   0.72640   0.00760   0.01267  Uiso   1.00
C137   C     0.62370   0.76430   0.99760   0.01267  Uiso   1.00
C138   C     0.60250   0.76920   0.96090   0.01267  Uiso   1.00
C139   C     0.65060   0.72090   0.04800   0.01267  Uiso   1.00
C140   C     0.99990   0.27250   0.84140   0.01267  Uiso   1.00
C141   C     0.03450   0.31140   0.84690   0.01267  Uiso   1.00
C142   C     0.96800   0.26880   0.80440   0.01267  Uiso   1.00
C143   C     0.03840   0.23540   0.83600   0.01267  Uiso   1.00
C144   C     0.96320   0.27320   0.87770   0.01267  Uiso   1.00
C145   C     0.10610   0.34150   0.81520   0.01267  Uiso   1.00
C146   C     0.11100   0.37230   0.84570   0.01267  Uiso   1.00
C147   C     0.14860   0.40220   0.84470   0.01267  Uiso   1.00
C148   C     0.18260   0.40350   0.81320   0.01267  Uiso   1.00
C149   C     0.17800   0.37090   0.78020   0.01267  Uiso   1.00
C150   C     0.14260   0.34110   0.78290   0.01267  Uiso   1.00
C151   C     0.22250   0.43590   0.80960   0.01267  Uiso   1.00
C152   C     0.88890   0.30110   0.77770   0.01267  Uiso   1.00
C153   C     0.85700   0.33240   0.78010   0.01267  Uiso   1.00
C154   C     0.81310   0.33420   0.75410   0.01267  Uiso   1.00
C155   C     0.80360   0.30230   0.72060   0.01267  Uiso   1.00
C156   C     0.83950   0.27140   0.71840   0.01267  Uiso   1.00
C157   C     0.88350   0.26960   0.74680   0.01267  Uiso   1.00
C158   C     0.75940   0.30210   0.69300   0.01267  Uiso   1.00
C159   C     0.03510   0.17090   0.85410   0.01267  Uiso   1.00
C160   C     0.08670   0.15960   0.84260   0.01267  Uiso   1.00
C161   C     0.11360   0.12450   0.85250   0.01267  Uiso   1.00
C162   C     0.08570   0.10160   0.87510   0.01267  Uiso   1.00
C163   C     0.03400   0.11270   0.88560   0.01267  Uiso   1.00
C164   C     0.01000   0.14560   0.87700   0.01267  Uiso   1.00
C165   C     0.11950   0.06280   0.88560   0.01267  Uiso   1.00
C166   C     0.96820   0.25690   0.94470   0.01267  Uiso   1.00
C167   C     0.99560   0.23420   0.96850   0.01267  Uiso   1.00
C168   C     0.97290   0.22500   0.00370   0.01267  Uiso   1.00
C169   C     0.91720   0.23890   0.01350   0.01267  Uiso   1.00
C170   C     0.89160   0.26260   0.98990   0.01267  Uiso   1.00
C171   C     0.91490   0.27000   0.95350   0.01267  Uiso   1.00
C172   C     0.89330   0.23190   0.05070   0.01267  Uiso   1.00
C173   C     0.16880   0.55050   0.87490   0.01267  Uiso   1.00
C174   C     0.16720   0.52800   0.90840   0.01267  Uiso   1.00
C175   C     0.20300   0.51970   0.93970   0.01267  Uiso   1.00
C176   C     0.29520   0.48090   0.93180   0.01267  Uiso   1.00
C177   C     0.33350   0.46240   0.89770   0.01267  Uiso   1.00
C178   C     0.37590   0.47140   0.83650   0.01267  Uiso   1.00
C179   C     0.37810   0.49940   0.80680   0.01267  Uiso   1.00
C180   C     0.33910   0.51960   0.78610   0.01267  Uiso   1.00
C181   C     0.25400   0.55130   0.77820   0.01267  Uiso   1.00
C182   C     0.21060   0.56270   0.80940   0.01267  Uiso   1.00
C183   C     0.74310   0.68470   0.63740   0.01267  Uiso   1.00
C184   C     0.70260   0.69220   0.60700   0.01267  Uiso   1.00
C185   C     0.68200   0.73160   0.60130   0.01267  Uiso   1.00
C186   C     0.70960   0.80330   0.58910   0.01267  Uiso   1.00
C187   C     0.76190   0.82840   0.58500   0.01267  Uiso   1.00
C188   C     0.85100   0.83880   0.60990   0.01267  Uiso   1.00
C189   C     0.88770   0.83020   0.64290   0.01267  Uiso   1.00
C190   C     0.90390   0.78980   0.64900   0.01267  Uiso   1.00
C191   C     0.87770   0.72770   0.67030   0.01267  Uiso   1.00
C192   C     0.82560   0.70540   0.66790   0.01267  Uiso   1.00
C193   C     0.73450   0.31440   0.55900   0.01267  Uiso   1.00
C194   C     0.70400   0.34570   0.58430   0.01267  Uiso   1.00
C195   C     0.65220   0.33700   0.60070   0.01267  Uiso   1.00
C196   C     0.60510   0.30160   0.65080   0.01267  Uiso   1.00
C197   C     0.61360   0.27160   0.67670   0.01267  Uiso   1.00
C198   C     0.65930   0.20580   0.67660   0.01267  Uiso   1.00
C199   C     0.68880   0.17280   0.65130   0.01267  Uiso   1.00
C200   C     0.73920   0.17930   0.63220   0.01267  Uiso   1.00
C201   C     0.79220   0.21880   0.58280   0.01267  Uiso   1.00
C202   C     0.78340   0.25270   0.56140   0.01267  Uiso   1.00
C203   C     0.23260   0.98100   0.94540   0.01267  Uiso   1.00
C204   C     0.17640   0.96380   0.94630   0.01267  Uiso   1.00
C205   C     0.15480   0.94280   0.90930   0.01267  Uiso   1.00
C206   C     0.11910   0.95050   0.84090   0.01267  Uiso   1.00
C207   C     0.11560   0.97610   0.81060   0.01267  Uiso   1.00
C208   C     0.17720   0.02780   0.78370   0.01267  Uiso   1.00
C209   C     0.23260   0.04510   0.78360   0.01267  Uiso   1.00
C210   C     0.25770   0.06430   0.81870   0.01267  Uiso   1.00
C211   C     0.29590   0.05570   0.88670   0.01267  Uiso   1.00
C212   C     0.29200   0.02710   0.91540   0.01267  Uiso   1.00
N1     N     0.30350   0.54170   0.34000   0.01267  Uiso   1.00
N2     N     0.25040   0.50750   0.41750   0.01267  Uiso   1.00
N3     N     0.15890   0.48990   0.37040   0.01267  Uiso   1.00
N4     N     0.21040   0.51820   0.29790   0.01267  Uiso   1.00
N5     N     0.70710   0.70570   0.13460   0.01267  Uiso   1.00
N6     N     0.77770   0.75940   0.09030   0.01267  Uiso   1.00
N7     N     0.70470   0.82280   0.11680   0.01267  Uiso   1.00
N8     N     0.63950   0.76900   0.15900   0.01267  Uiso   1.00
N9     N     0.74570   0.28620   0.08470   0.01267  Uiso   1.00
N10    N     0.84400   0.31170   0.13190   0.01267  Uiso   1.00
N11    N     0.86110   0.23500   0.15100   0.01267  Uiso   1.00
N12    N     0.76130   0.20600   0.10130   0.01267  Uiso   1.00
N13    N     0.26360   0.01210   0.42000   0.01267  Uiso   1.00
N14    N     0.35930   0.96830   0.37990   0.01267  Uiso   1.00
N15    N     0.32620   0.99240   0.30580   0.01267  Uiso   1.00
N16    N     0.22760   0.03590   0.34700   0.01267  Uiso   1.00
N17    N     0.19650   0.54170   0.84000   0.01267  Uiso   1.00
N18    N     0.24960   0.50750   0.91750   0.01267  Uiso   1.00
N19    N     0.34110   0.48990   0.87040   0.01267  Uiso   1.00
N20    N     0.28960   0.51820   0.79790   0.01267  Uiso   1.00
N21    N     0.79290   0.70570   0.63460   0.01267  Uiso   1.00
N22    N     0.72230   0.75940   0.59030   0.01267  Uiso   1.00
N23    N     0.79530   0.82280   0.61680   0.01267  Uiso   1.00
N24    N     0.86050   0.76900   0.65900   0.01267  Uiso   1.00
N25    N     0.75430   0.28620   0.58470   0.01267  Uiso   1.00
N26    N     0.65600   0.31170   0.63190   0.01267  Uiso   1.00
N27    N     0.63890   0.23500   0.65100   0.01267  Uiso   1.00
N28    N     0.73870   0.20600   0.60130   0.01267  Uiso   1.00
N29    N     0.23640   0.01210   0.92000   0.01267  Uiso   1.00
N30    N     0.14070   0.96830   0.87990   0.01267  Uiso   1.00
N31    N     0.17380   0.99240   0.80580   0.01267  Uiso   1.00
N32    N     0.27240   0.03590   0.84700   0.01267  Uiso   1.00
O1     O     0.92870   0.80490   0.31833   0.01267  Uiso   1.00
O2     O     0.06410   0.81297   0.32337   0.01267  Uiso   1.00
O3     O     0.06110   0.73460   0.38810   0.01267  Uiso   1.00
O4     O     0.94110   0.74170   0.39820   0.01267  Uiso   1.00
O5     O     0.74460   0.84120   0.19800   0.01267  Uiso   1.00
O6     O     0.76010   0.77630   0.17550   0.01267  Uiso   1.00
O7     O     0.25770   0.92830   0.28670   0.01267  Uiso   1.00
O8     O     0.24030   0.95170   0.34970   0.01267  Uiso   1.00
O9     O     0.18590   0.56950   0.37170   0.01267  Uiso   1.00
O10    O     0.18310   0.58280   0.43670   0.01267  Uiso   1.00
O11    O     0.84410   0.68560   0.55570   0.01267  Uiso   1.00
O12    O     0.83270   0.75240   0.57190   0.01267  Uiso   1.00
O13    O     0.42840   0.31020   0.31410   0.01267  Uiso   1.00
O14    O     0.57160   0.30095   0.30640   0.01267  Uiso   1.00
O15    O     0.49210   0.20240   0.34240   0.01267  Uiso   1.00
O16    O     0.50260   0.26390   0.41060   0.01267  Uiso   1.00
O17    O     0.27110   0.46080   0.34180   0.01267  Uiso   1.00
O18    O     0.25220   0.43770   0.27900   0.01267  Uiso   1.00
O19    O     0.76900   0.33200   0.19560   0.01267  Uiso   1.00
O20    O     0.74800   0.27270   0.16600   0.01267  Uiso   1.00
O21    O     0.33890   0.05640   0.37210   0.01267  Uiso   1.00
O22    O     0.41560   0.04320   0.40470   0.01267  Uiso   1.00
O23    O     0.58070   0.21310   0.57540   0.01267  Uiso   1.00
O24    O     0.65100   0.24830   0.56420   0.01267  Uiso   1.00
O25    O     0.57130   0.80490   0.81833   0.01267  Uiso   1.00
O26    O     0.43590   0.81297   0.82337   0.01267  Uiso   1.00
O27    O     0.43890   0.73460   0.88810   0.01267  Uiso   1.00
O28    O     0.55890   0.74170   0.89820   0.01267  Uiso   1.00
O29    O     0.75540   0.84120   0.69800   0.01267  Uiso   1.00
O30    O     0.73990   0.77630   0.67550   0.01267  Uiso   1.00
O31    O     0.24230   0.92830   0.78670   0.01267  Uiso   1.00
O32    O     0.25970   0.95170   0.84970   0.01267  Uiso   1.00
O33    O     0.31410   0.56950   0.87170   0.01267  Uiso   1.00
O34    O     0.31690   0.58280   0.93670   0.01267  Uiso   1.00
O35    O     0.65590   0.68560   0.05570   0.01267  Uiso   1.00
O36    O     0.66730   0.75240   0.07190   0.01267  Uiso   1.00
O37    O     0.07160   0.31020   0.81410   0.01267  Uiso   1.00
O38    O     0.92840   0.30095   0.80640   0.01267  Uiso   1.00
O39    O     0.00790   0.20240   0.84240   0.01267  Uiso   1.00
O40    O     0.99740   0.26390   0.91060   0.01267  Uiso   1.00
O41    O     0.22890   0.46080   0.84180   0.01267  Uiso   1.00
O42    O     0.24780   0.43770   0.77900   0.01267  Uiso   1.00
O43    O     0.73100   0.33200   0.69560   0.01267  Uiso   1.00
O44    O     0.75200   0.27270   0.66600   0.01267  Uiso   1.00
O45    O     0.16110   0.05640   0.87210   0.01267  Uiso   1.00
O46    O     0.08440   0.04320   0.90470   0.01267  Uiso   1.00
O47    O     0.91930   0.21310   0.07540   0.01267  Uiso   1.00
O48    O     0.84900   0.24830   0.06420   0.01267  Uiso   1.00
Ni9    Ni    0.30278   0.74007   0.38236   0.01267  Uiso   1.00
Ni10   Ni    0.72929   0.48561   0.14323   0.01267  Uiso   1.00
Ni11   Ni    0.79429   0.99765   0.13688   0.01267  Uiso   1.00
Ni12   Ni    0.21064   0.23602   0.37545   0.01267  Uiso   1.00
Ni13   Ni    0.19722   0.74007   0.88236   0.01267  Uiso   1.00
Ni14   Ni    0.77071   0.48561   0.64323   0.01267  Uiso   1.00
Ni15   Ni    0.70571   0.99765   0.63688   0.01267  Uiso   1.00
Ni16   Ni    0.28936   0.23602   0.87545   0.01267  Uiso   1.00
H257   H     0.48330   0.23480   0.20660   0.01267  Uiso   1.00
H258   H     0.43850   0.25410   0.18180   0.01267  Uiso   1.00
H259   H     0.50650   0.16540   0.13820   0.01267  Uiso   1.00
H260   H     0.55430   0.18620   0.11780   0.01267  Uiso   1.00
H261   H     0.51330   0.28550   0.15750   0.01267  Uiso   1.00
H262   H     0.56230   0.25960   0.16960   0.01267  Uiso   1.00
H263   H     0.48650   0.21200   0.08180   0.01267  Uiso   1.00
H264   H     0.43550   0.20100   0.10650   0.01267  Uiso   1.00
H265   H     0.40490   0.25230   0.24150   0.01267  Uiso   1.00
H266   H     0.33410   0.24990   0.28550   0.01267  Uiso   1.00
H267   H     0.30060   0.13600   0.24110   0.01267  Uiso   1.00
H268   H     0.36820   0.13860   0.19460   0.01267  Uiso   1.00
H269   H     0.62960   0.17780   0.23180   0.01267  Uiso   1.00
H270   H     0.69880   0.12870   0.23340   0.01267  Uiso   1.00
H271   H     0.66500   0.08390   0.12330   0.01267  Uiso   1.00
H272   H     0.59430   0.12690   0.11970   0.01267  Uiso   1.00
H273   H     0.59620   0.31910   0.16930   0.01267  Uiso   1.00
H274   H     0.64790   0.37470   0.16260   0.01267  Uiso   1.00
H275   H     0.62510   0.35240   0.04260   0.01267  Uiso   1.00
H276   H     0.58270   0.29400   0.05360   0.01267  Uiso   1.00
H277   H     0.43790   0.32000   0.06910   0.01267  Uiso   1.00
H278   H     0.39520   0.33050   0.01080   0.01267  Uiso   1.00
H279   H     0.36530   0.21350   0.98470   0.01267  Uiso   1.00
H280   H     0.39740   0.20540   0.04710   0.01267  Uiso   1.00
H281   H     0.94550   0.68650   0.12810   0.01267  Uiso   1.00
H282   H     0.98900   0.66530   0.15230   0.01267  Uiso   1.00
H283   H     0.05050   0.75690   0.19940   0.01267  Uiso   1.00
H284   H     0.00800   0.73000   0.21830   0.01267  Uiso   1.00
H285   H     0.93190   0.76070   0.14490   0.01267  Uiso   1.00
H286   H     0.94640   0.76840   0.19080   0.01267  Uiso   1.00
H287   H     0.06550   0.74670   0.12760   0.01267  Uiso   1.00
H288   H     0.05340   0.70060   0.11570   0.01267  Uiso   1.00
H289   H     0.91170   0.62700   0.13210   0.01267  Uiso   1.00
H290   H     0.84920   0.57760   0.13360   0.01267  Uiso   1.00
H291   H     0.80070   0.62910   0.24260   0.01267  Uiso   1.00
H292   H     0.85790   0.68080   0.23720   0.01267  Uiso   1.00
H293   H     0.13620   0.64590   0.20030   0.01267  Uiso   1.00
H294   H     0.21060   0.64400   0.24190   0.01267  Uiso   1.00
H295   H     0.16420   0.74960   0.30240   0.01267  Uiso   1.00
H296   H     0.09260   0.75200   0.25560   0.01267  Uiso   1.00
H297   H     0.89420   0.82410   0.17280   0.01267  Uiso   1.00
H298   H     0.85130   0.88210   0.15630   0.01267  Uiso   1.00
H299   H     0.98600   0.90410   0.10010   0.01267  Uiso   1.00
H300   H     0.02480   0.84820   0.11330   0.01267  Uiso   1.00
H301   H     0.96980   0.77530   0.03890   0.01267  Uiso   1.00
H302   H     0.00780   0.78950   0.97940   0.01267  Uiso   1.00
H303   H     0.14180   0.72600   0.00220   0.01267  Uiso   1.00
H304   H     0.10470   0.71660   0.06440   0.01267  Uiso   1.00
H305   H     0.81930   0.42280   0.11400   0.01267  Uiso   1.00
H306   H     0.86890   0.44670   0.13280   0.01267  Uiso   1.00
H307   H     0.84340   0.49860   0.10400   0.01267  Uiso   1.00
H308   H     0.86480   0.46120   0.07700   0.01267  Uiso   1.00
H309   H     0.81100   0.50160   0.04630   0.01267  Uiso   1.00
H310   H     0.79020   0.45660   0.04120   0.01267  Uiso   1.00
H311   H     0.68330   0.50290   0.04790   0.01267  Uiso   1.00
H312   H     0.72130   0.54060   0.05590   0.01267  Uiso   1.00
H313   H     0.68230   0.56220   0.11600   0.01267  Uiso   1.00
H314   H     0.63170   0.54420   0.09120   0.01267  Uiso   1.00
H315   H     0.63940   0.55400   0.17540   0.01267  Uiso   1.00
H316   H     0.58770   0.53340   0.15400   0.01267  Uiso   1.00
H317   H     0.59990   0.51470   0.21460   0.01267  Uiso   1.00
H318   H     0.59890   0.47910   0.18060   0.01267  Uiso   1.00
H319   H     0.65960   0.49150   0.24210   0.01267  Uiso   1.00
H320   H     0.65030   0.45240   0.21200   0.01267  Uiso   1.00
H321   H     0.76190   0.46030   0.24710   0.01267  Uiso   1.00
H322   H     0.72400   0.42570   0.22600   0.01267  Uiso   1.00
H323   H     0.82270   0.43440   0.20540   0.01267  Uiso   1.00
H324   H     0.77990   0.41050   0.17790   0.01267  Uiso   1.00
H325   H     0.24940   0.34390   0.36540   0.01267  Uiso   1.00
H326   H     0.27240   0.30750   0.33620   0.01267  Uiso   1.00
H327   H     0.32900   0.32380   0.38830   0.01267  Uiso   1.00
H328   H     0.28250   0.31950   0.41860   0.01267  Uiso   1.00
H329   H     0.33540   0.25650   0.37410   0.01267  Uiso   1.00
H330   H     0.34570   0.27180   0.41950   0.01267  Uiso   1.00
H331   H     0.31430   0.19430   0.43330   0.01267  Uiso   1.00
H332   H     0.30930   0.18600   0.38650   0.01267  Uiso   1.00
H333   H     0.24710   0.14340   0.41410   0.01267  Uiso   1.00
H334   H     0.22000   0.18060   0.44020   0.01267  Uiso   1.00
H335   H     0.15090   0.13240   0.39080   0.01267  Uiso   1.00
H336   H     0.13490   0.17380   0.41570   0.01267  Uiso   1.00
H337   H     0.12920   0.15780   0.33230   0.01267  Uiso   1.00
H338   H     0.07900   0.15490   0.35990   0.01267  Uiso   1.00
H339   H     0.06910   0.20880   0.32980   0.01267  Uiso   1.00
H340   H     0.07990   0.22380   0.37540   0.01267  Uiso   1.00
H341   H     0.10720   0.26960   0.30280   0.01267  Uiso   1.00
H342   H     0.09580   0.28530   0.34850   0.01267  Uiso   1.00
H343   H     0.19580   0.28420   0.30870   0.01267  Uiso   1.00
H344   H     0.16610   0.32240   0.32970   0.01267  Uiso   1.00
H345   H     0.23520   0.67380   0.45380   0.01267  Uiso   1.00
H346   H     0.28890   0.69920   0.46180   0.01267  Uiso   1.00
H347   H     0.30140   0.63230   0.43130   0.01267  Uiso   1.00
H348   H     0.27260   0.64430   0.39340   0.01267  Uiso   1.00
H349   H     0.36520   0.63800   0.38860   0.01267  Uiso   1.00
H350   H     0.37060   0.67610   0.42070   0.01267  Uiso   1.00
H351   H     0.42110   0.70820   0.36980   0.01267  Uiso   1.00
H352   H     0.40990   0.67440   0.33380   0.01267  Uiso   1.00
H353   H     0.36210   0.71830   0.30160   0.01267  Uiso   1.00
H354   H     0.42060   0.73560   0.31200   0.01267  Uiso   1.00
H355   H     0.31630   0.78090   0.30320   0.01267  Uiso   1.00
H356   H     0.37090   0.80520   0.30990   0.01267  Uiso   1.00
H357   H     0.33620   0.83820   0.36960   0.01267  Uiso   1.00
H358   H     0.30490   0.84820   0.33200   0.01267  Uiso   1.00
H359   H     0.23510   0.81000   0.34730   0.01267  Uiso   1.00
H360   H     0.24700   0.84660   0.37980   0.01267  Uiso   1.00
H361   H     0.19340   0.80350   0.43550   0.01267  Uiso   1.00
H362   H     0.18120   0.77410   0.39620   0.01267  Uiso   1.00
H363   H     0.18160   0.73760   0.44670   0.01267  Uiso   1.00
H364   H     0.23710   0.75620   0.46280   0.01267  Uiso   1.00
H365   H     0.74210   0.04040   0.06400   0.01267  Uiso   1.00
H366   H     0.75690   0.00810   0.02750   0.01267  Uiso   1.00
H367   H     0.84830   0.01440   0.04440   0.01267  Uiso   1.00
H368   H     0.82400   0.05460   0.03390   0.01267  Uiso   1.00
H369   H     0.87740   0.07190   0.08460   0.01267  Uiso   1.00
H370   H     0.81850   0.07660   0.10220   0.01267  Uiso   1.00
H371   H     0.91700   0.05980   0.15490   0.01267  Uiso   1.00
H372   H     0.85810   0.07230   0.16910   0.01267  Uiso   1.00
H373   H     0.89690   0.03880   0.21440   0.01267  Uiso   1.00
H374   H     0.90950   0.00200   0.18140   0.01267  Uiso   1.00
H375   H     0.84770   0.95170   0.20420   0.01267  Uiso   1.00
H376   H     0.83430   0.98010   0.24380   0.01267  Uiso   1.00
H377   H     0.76780   0.93570   0.23540   0.01267  Uiso   1.00
H378   H     0.74330   0.97650   0.22730   0.01267  Uiso   1.00
H379   H     0.70960   0.92210   0.18860   0.01267  Uiso   1.00
H380   H     0.76680   0.91550   0.16810   0.01267  Uiso   1.00
H381   H     0.72430   0.92010   0.10380   0.01267  Uiso   1.00
H382   H     0.66630   0.93700   0.11680   0.01267  Uiso   1.00
H383   H     0.68430   0.99550   0.09310   0.01267  Uiso   1.00
H384   H     0.69520   0.96020   0.05870   0.01267  Uiso   1.00
H385   H     0.01670   0.23480   0.70660   0.01267  Uiso   1.00
H386   H     0.06150   0.25410   0.68180   0.01267  Uiso   1.00
H387   H     0.99350   0.16540   0.63820   0.01267  Uiso   1.00
H388   H     0.94570   0.18620   0.61780   0.01267  Uiso   1.00
H389   H     0.98670   0.28550   0.65750   0.01267  Uiso   1.00
H390   H     0.93770   0.25960   0.66960   0.01267  Uiso   1.00
H391   H     0.01350   0.21200   0.58180   0.01267  Uiso   1.00
H392   H     0.06450   0.20100   0.60650   0.01267  Uiso   1.00
H393   H     0.09510   0.25230   0.74150   0.01267  Uiso   1.00
H394   H     0.16590   0.24990   0.78550   0.01267  Uiso   1.00
H395   H     0.19940   0.13600   0.74110   0.01267  Uiso   1.00
H396   H     0.13180   0.13860   0.69460   0.01267  Uiso   1.00
H397   H     0.87040   0.17780   0.73180   0.01267  Uiso   1.00
H398   H     0.80120   0.12870   0.73340   0.01267  Uiso   1.00
H399   H     0.83500   0.08390   0.62330   0.01267  Uiso   1.00
H400   H     0.90570   0.12690   0.61970   0.01267  Uiso   1.00
H401   H     0.90380   0.31910   0.66930   0.01267  Uiso   1.00
H402   H     0.85210   0.37470   0.66260   0.01267  Uiso   1.00
H403   H     0.87490   0.35240   0.54260   0.01267  Uiso   1.00
H404   H     0.91730   0.29400   0.55360   0.01267  Uiso   1.00
H405   H     0.06210   0.32000   0.56910   0.01267  Uiso   1.00
H406   H     0.10480   0.33050   0.51080   0.01267  Uiso   1.00
H407   H     0.13470   0.21350   0.48470   0.01267  Uiso   1.00
H408   H     0.10260   0.20540   0.54710   0.01267  Uiso   1.00
H409   H     0.55450   0.68650   0.62810   0.01267  Uiso   1.00
H410   H     0.51100   0.66530   0.65230   0.01267  Uiso   1.00
H411   H     0.44950   0.75690   0.69940   0.01267  Uiso   1.00
H412   H     0.49200   0.73000   0.71830   0.01267  Uiso   1.00
H413   H     0.56810   0.76070   0.64490   0.01267  Uiso   1.00
H414   H     0.55360   0.76840   0.69080   0.01267  Uiso   1.00
H415   H     0.43450   0.74670   0.62760   0.01267  Uiso   1.00
H416   H     0.44660   0.70060   0.61570   0.01267  Uiso   1.00
H417   H     0.58830   0.62700   0.63210   0.01267  Uiso   1.00
H418   H     0.65080   0.57760   0.63360   0.01267  Uiso   1.00
H419   H     0.69930   0.62910   0.74260   0.01267  Uiso   1.00
H420   H     0.64210   0.68080   0.73720   0.01267  Uiso   1.00
H421   H     0.36380   0.64590   0.70030   0.01267  Uiso   1.00
H422   H     0.28940   0.64400   0.74190   0.01267  Uiso   1.00
H423   H     0.33580   0.74960   0.80240   0.01267  Uiso   1.00
H424   H     0.40740   0.75200   0.75560   0.01267  Uiso   1.00
H425   H     0.60580   0.82410   0.67280   0.01267  Uiso   1.00
H426   H     0.64870   0.88210   0.65630   0.01267  Uiso   1.00
H427   H     0.51400   0.90410   0.60010   0.01267  Uiso   1.00
H428   H     0.47520   0.84820   0.61330   0.01267  Uiso   1.00
H429   H     0.53020   0.77530   0.53890   0.01267  Uiso   1.00
H430   H     0.49220   0.78950   0.47940   0.01267  Uiso   1.00
H431   H     0.35820   0.72600   0.50220   0.01267  Uiso   1.00
H432   H     0.39530   0.71660   0.56440   0.01267  Uiso   1.00
H433   H     0.68070   0.42280   0.61400   0.01267  Uiso   1.00
H434   H     0.63110   0.44670   0.63280   0.01267  Uiso   1.00
H435   H     0.65660   0.49860   0.60400   0.01267  Uiso   1.00
H436   H     0.63520   0.46120   0.57700   0.01267  Uiso   1.00
H437   H     0.68900   0.50160   0.54630   0.01267  Uiso   1.00
H438   H     0.70980   0.45660   0.54120   0.01267  Uiso   1.00
H439   H     0.81670   0.50290   0.54790   0.01267  Uiso   1.00
H440   H     0.77870   0.54060   0.55590   0.01267  Uiso   1.00
H441   H     0.81770   0.56220   0.61600   0.01267  Uiso   1.00
H442   H     0.86830   0.54420   0.59120   0.01267  Uiso   1.00
H443   H     0.86060   0.55400   0.67540   0.01267  Uiso   1.00
H444   H     0.91230   0.53340   0.65400   0.01267  Uiso   1.00
H445   H     0.90010   0.51470   0.71460   0.01267  Uiso   1.00
H446   H     0.90110   0.47910   0.68060   0.01267  Uiso   1.00
H447   H     0.84040   0.49150   0.74210   0.01267  Uiso   1.00
H448   H     0.84970   0.45240   0.71200   0.01267  Uiso   1.00
H449   H     0.73810   0.46030   0.74710   0.01267  Uiso   1.00
H450   H     0.77600   0.42570   0.72600   0.01267  Uiso   1.00
H451   H     0.67730   0.43440   0.70540   0.01267  Uiso   1.00
H452   H     0.72010   0.41050   0.67790   0.01267  Uiso   1.00
H453   H     0.25060   0.34390   0.86540   0.01267  Uiso   1.00
H454   H     0.22760   0.30750   0.83620   0.01267  Uiso   1.00
H455   H     0.17100   0.32380   0.88830   0.01267  Uiso   1.00
H456   H     0.21750   0.31950   0.91860   0.01267  Uiso   1.00
H457   H     0.16460   0.25650   0.87410   0.01267  Uiso   1.00
H458   H     0.15430   0.27180   0.91950   0.01267  Uiso   1.00
H459   H     0.18570   0.19430   0.93330   0.01267  Uiso   1.00
H460   H     0.19070   0.18600   0.88650   0.01267  Uiso   1.00
H461   H     0.25290   0.14340   0.91410   0.01267  Uiso   1.00
H462   H     0.28000   0.18060   0.94020   0.01267  Uiso   1.00
H463   H     0.34910   0.13240   0.89080   0.01267  Uiso   1.00
H464   H     0.36510   0.17380   0.91570   0.01267  Uiso   1.00
H465   H     0.37080   0.15780   0.83230   0.01267  Uiso   1.00
H466   H     0.42100   0.15490   0.85990   0.01267  Uiso   1.00
H467   H     0.43090   0.20880   0.82980   0.01267  Uiso   1.00
H468   H     0.42010   0.22380   0.87540   0.01267  Uiso   1.00
H469   H     0.39280   0.26960   0.80280   0.01267  Uiso   1.00
H470   H     0.40420   0.28530   0.84850   0.01267  Uiso   1.00
H471   H     0.30420   0.28420   0.80870   0.01267  Uiso   1.00
H472   H     0.33390   0.32240   0.82970   0.01267  Uiso   1.00
H473   H     0.26480   0.67380   0.95380   0.01267  Uiso   1.00
H474   H     0.21110   0.69920   0.96180   0.01267  Uiso   1.00
H475   H     0.19860   0.63230   0.93130   0.01267  Uiso   1.00
H476   H     0.22740   0.64430   0.89340   0.01267  Uiso   1.00
H477   H     0.13480   0.63800   0.88860   0.01267  Uiso   1.00
H478   H     0.12940   0.67610   0.92070   0.01267  Uiso   1.00
H479   H     0.07890   0.70820   0.86980   0.01267  Uiso   1.00
H480   H     0.09010   0.67440   0.83380   0.01267  Uiso   1.00
H481   H     0.13790   0.71830   0.80160   0.01267  Uiso   1.00
H482   H     0.07940   0.73560   0.81200   0.01267  Uiso   1.00
H483   H     0.18370   0.78090   0.80320   0.01267  Uiso   1.00
H484   H     0.12910   0.80520   0.80990   0.01267  Uiso   1.00
H485   H     0.16380   0.83820   0.86960   0.01267  Uiso   1.00
H486   H     0.19510   0.84820   0.83200   0.01267  Uiso   1.00
H487   H     0.26490   0.81000   0.84730   0.01267  Uiso   1.00
H488   H     0.25300   0.84660   0.87980   0.01267  Uiso   1.00
H489   H     0.30660   0.80350   0.93550   0.01267  Uiso   1.00
H490   H     0.31880   0.77410   0.89620   0.01267  Uiso   1.00
H491   H     0.31840   0.73760   0.94670   0.01267  Uiso   1.00
H492   H     0.26290   0.75620   0.96280   0.01267  Uiso   1.00
H493   H     0.75790   0.04040   0.56400   0.01267  Uiso   1.00
H494   H     0.74310   0.00810   0.52750   0.01267  Uiso   1.00
H495   H     0.65170   0.01440   0.54440   0.01267  Uiso   1.00
H496   H     0.67600   0.05460   0.53390   0.01267  Uiso   1.00
H497   H     0.62260   0.07190   0.58460   0.01267  Uiso   1.00
H498   H     0.68150   0.07660   0.60220   0.01267  Uiso   1.00
H499   H     0.58300   0.05980   0.65490   0.01267  Uiso   1.00
H500   H     0.64190   0.07230   0.66910   0.01267  Uiso   1.00
H501   H     0.60310   0.03880   0.71440   0.01267  Uiso   1.00
H502   H     0.59050   0.00200   0.68140   0.01267  Uiso   1.00
H503   H     0.65230   0.95170   0.70420   0.01267  Uiso   1.00
H504   H     0.66570   0.98010   0.74380   0.01267  Uiso   1.00
H505   H     0.73220   0.93570   0.73540   0.01267  Uiso   1.00
H506   H     0.75670   0.97650   0.72730   0.01267  Uiso   1.00
H507   H     0.79040   0.92210   0.68860   0.01267  Uiso   1.00
H508   H     0.73320   0.91550   0.66810   0.01267  Uiso   1.00
H509   H     0.77570   0.92010   0.60380   0.01267  Uiso   1.00
H510   H     0.83370   0.93700   0.61680   0.01267  Uiso   1.00
H511   H     0.81570   0.99550   0.59310   0.01267  Uiso   1.00
H512   H     0.80480   0.96020   0.55870   0.01267  Uiso   1.00
C213   C     0.49970   0.22570   0.14490   0.01267  Uiso   1.00
C214   C     0.46170   0.23080   0.18230   0.01267  Uiso   1.00
C215   C     0.53110   0.18810   0.14140   0.01267  Uiso   1.00
C216   C     0.53500   0.26180   0.14910   0.01267  Uiso   1.00
C217   C     0.46390   0.22070   0.10500   0.01267  Uiso   1.00
C218   C     0.39100   0.19530   0.21050   0.01267  Uiso   1.00
C219   C     0.38310   0.22960   0.24050   0.01267  Uiso   1.00
C220   C     0.34210   0.22710   0.26760   0.01267  Uiso   1.00
C221   C     0.31290   0.19390   0.26970   0.01267  Uiso   1.00
C222   C     0.32140   0.15920   0.24080   0.01267  Uiso   1.00
C223   C     0.36110   0.16130   0.21290   0.01267  Uiso   1.00
C224   C     0.26800   0.19060   0.30180   0.01267  Uiso   1.00
C225   C     0.60380   0.15850   0.17540   0.01267  Uiso   1.00
C226   C     0.63550   0.15860   0.20960   0.01267  Uiso   1.00
C227   C     0.67760   0.12880   0.21050   0.01267  Uiso   1.00
C228   C     0.68640   0.10140   0.17870   0.01267  Uiso   1.00
C229   C     0.65680   0.10230   0.14580   0.01267  Uiso   1.00
C230   C     0.61510   0.12870   0.14300   0.01267  Uiso   1.00
C231   C     0.73220   0.07250   0.18150   0.01267  Uiso   1.00
C232   C     0.59030   0.30040   0.11200   0.01267  Uiso   1.00
C233   C     0.60560   0.32480   0.14390   0.01267  Uiso   1.00
C234   C     0.63540   0.35860   0.13980   0.01267  Uiso   1.00
C235   C     0.64680   0.36920   0.10380   0.01267  Uiso   1.00
C236   C     0.62270   0.34480   0.06820   0.01267  Uiso   1.00
C237   C     0.59670   0.31090   0.07530   0.01267  Uiso   1.00
C238   C     0.67500   0.40820   0.09750   0.01267  Uiso   1.00
C239   C     0.41980   0.26340   0.06520   0.01267  Uiso   1.00
C240   C     0.42060   0.29870   0.05350   0.01267  Uiso   1.00
C241   C     0.39570   0.30470   0.01800   0.01267  Uiso   1.00
C242   C     0.37140   0.27360   0.99240   0.01267  Uiso   1.00
C243   C     0.37630   0.23570   0.00240   0.01267  Uiso   1.00
C244   C     0.39750   0.23080   0.03910   0.01267  Uiso   1.00
C245   C     0.34940   0.27910   0.95200   0.01267  Uiso   1.00
C246   C     0.00010   0.72750   0.15860   0.01267  Uiso   1.00
C247   C     0.96550   0.68860   0.15310   0.01267  Uiso   1.00
C248   C     0.03200   0.73120   0.19560   0.01267  Uiso   1.00
C249   C     0.96160   0.76460   0.16400   0.01267  Uiso   1.00
C250   C     0.03680   0.72680   0.12230   0.01267  Uiso   1.00
C251   C     0.89390   0.65850   0.18480   0.01267  Uiso   1.00
C252   C     0.88900   0.62770   0.15430   0.01267  Uiso   1.00
C253   C     0.85140   0.59780   0.15530   0.01267  Uiso   1.00
C254   C     0.81740   0.59650   0.18680   0.01267  Uiso   1.00
C255   C     0.82200   0.62910   0.21980   0.01267  Uiso   1.00
C256   C     0.85740   0.65890   0.21710   0.01267  Uiso   1.00
C257   C     0.77750   0.56410   0.19040   0.01267  Uiso   1.00
C258   C     0.11110   0.69890   0.22230   0.01267  Uiso   1.00
C259   C     0.14300   0.66760   0.21990   0.01267  Uiso   1.00
C260   C     0.18690   0.66580   0.24590   0.01267  Uiso   1.00
C261   C     0.19640   0.69770   0.27940   0.01267  Uiso   1.00
C262   C     0.16050   0.72860   0.28160   0.01267  Uiso   1.00
C263   C     0.11650   0.73040   0.25320   0.01267  Uiso   1.00
C264   C     0.24060   0.69790   0.30700   0.01267  Uiso   1.00
C265   C     0.96490   0.82910   0.14590   0.01267  Uiso   1.00
C266   C     0.91330   0.84040   0.15740   0.01267  Uiso   1.00
C267   C     0.88640   0.87550   0.14750   0.01267  Uiso   1.00
C268   C     0.91430   0.89840   0.12490   0.01267  Uiso   1.00
C269   C     0.96600   0.88730   0.11440   0.01267  Uiso   1.00
C270   C     0.99000   0.85440   0.12300   0.01267  Uiso   1.00
C271   C     0.88050   0.93720   0.11440   0.01267  Uiso   1.00
C272   C     0.03180   0.74310   0.05530   0.01267  Uiso   1.00
C273   C     0.00440   0.76580   0.03150   0.01267  Uiso   1.00
C274   C     0.02710   0.77500   0.99630   0.01267  Uiso   1.00
C275   C     0.08280   0.76110   0.98650   0.01267  Uiso   1.00
C276   C     0.10840   0.73740   0.01010   0.01267  Uiso   1.00
C277   C     0.08510   0.73000   0.04650   0.01267  Uiso   1.00
C278   C     0.10670   0.76810   0.94930   0.01267  Uiso   1.00
C279   C     0.83120   0.44950   0.12510   0.01267  Uiso   1.00
C280   C     0.83280   0.47200   0.09160   0.01267  Uiso   1.00
C281   C     0.79700   0.48030   0.06030   0.01267  Uiso   1.00
C282   C     0.70480   0.51910   0.06820   0.01267  Uiso   1.00
C283   C     0.66650   0.53760   0.10230   0.01267  Uiso   1.00
C284   C     0.62410   0.52860   0.16350   0.01267  Uiso   1.00
C285   C     0.62190   0.50060   0.19320   0.01267  Uiso   1.00
C286   C     0.66090   0.48040   0.21390   0.01267  Uiso   1.00
C287   C     0.74600   0.44870   0.22180   0.01267  Uiso   1.00
C288   C     0.78940   0.43730   0.19060   0.01267  Uiso   1.00
C289   C     0.25690   0.31530   0.36260   0.01267  Uiso   1.00
C290   C     0.29740   0.30780   0.39300   0.01267  Uiso   1.00
C291   C     0.31800   0.26840   0.39870   0.01267  Uiso   1.00
C292   C     0.29040   0.19670   0.41090   0.01267  Uiso   1.00
C293   C     0.23810   0.17160   0.41500   0.01267  Uiso   1.00
C294   C     0.14900   0.16120   0.39010   0.01267  Uiso   1.00
C295   C     0.11230   0.16980   0.35710   0.01267  Uiso   1.00
C296   C     0.09610   0.21020   0.35100   0.01267  Uiso   1.00
C297   C     0.12230   0.27230   0.32970   0.01267  Uiso   1.00
C298   C     0.17440   0.29460   0.33210   0.01267  Uiso   1.00
C299   C     0.26550   0.68560   0.44100   0.01267  Uiso   1.00
C300   C     0.29600   0.65430   0.41570   0.01267  Uiso   1.00
C301   C     0.34780   0.66300   0.39930   0.01267  Uiso   1.00
C302   C     0.39490   0.69840   0.34920   0.01267  Uiso   1.00
C303   C     0.38640   0.72840   0.32330   0.01267  Uiso   1.00
C304   C     0.34070   0.79420   0.32340   0.01267  Uiso   1.00
C305   C     0.31120   0.82720   0.34870   0.01267  Uiso   1.00
C306   C     0.26080   0.82070   0.36780   0.01267  Uiso   1.00
C307   C     0.20780   0.78120   0.41720   0.01267  Uiso   1.00
C308   C     0.21660   0.74730   0.43860   0.01267  Uiso   1.00
C309   C     0.76740   0.01900   0.05460   0.01267  Uiso   1.00
C310   C     0.82360   0.03620   0.05370   0.01267  Uiso   1.00
C311   C     0.84520   0.05720   0.09070   0.01267  Uiso   1.00
C312   C     0.88090   0.04950   0.15910   0.01267  Uiso   1.00
C313   C     0.88440   0.02390   0.18940   0.01267  Uiso   1.00
C314   C     0.82280   0.97220   0.21630   0.01267  Uiso   1.00
C315   C     0.76740   0.95490   0.21640   0.01267  Uiso   1.00
C316   C     0.74230   0.93570   0.18130   0.01267  Uiso   1.00
C317   C     0.70410   0.94430   0.11330   0.01267  Uiso   1.00
C318   C     0.70800   0.97290   0.08460   0.01267  Uiso   1.00
C319   C     0.00030   0.22570   0.64490   0.01267  Uiso   1.00
C320   C     0.03830   0.23080   0.68230   0.01267  Uiso   1.00
C321   C     0.96890   0.18810   0.64140   0.01267  Uiso   1.00
C322   C     0.96500   0.26180   0.64910   0.01267  Uiso   1.00
C323   C     0.03610   0.22070   0.60500   0.01267  Uiso   1.00
C324   C     0.10900   0.19530   0.71050   0.01267  Uiso   1.00
C325   C     0.11690   0.22960   0.74050   0.01267  Uiso   1.00
C326   C     0.15790   0.22710   0.76760   0.01267  Uiso   1.00
C327   C     0.18710   0.19390   0.76970   0.01267  Uiso   1.00
C328   C     0.17860   0.15920   0.74080   0.01267  Uiso   1.00
C329   C     0.13890   0.16130   0.71290   0.01267  Uiso   1.00
C330   C     0.23200   0.19060   0.80180   0.01267  Uiso   1.00
C331   C     0.89620   0.15850   0.67540   0.01267  Uiso   1.00
C332   C     0.86450   0.15860   0.70960   0.01267  Uiso   1.00
C333   C     0.82240   0.12880   0.71050   0.01267  Uiso   1.00
C334   C     0.81360   0.10140   0.67870   0.01267  Uiso   1.00
C335   C     0.84320   0.10230   0.64580   0.01267  Uiso   1.00
C336   C     0.88490   0.12870   0.64300   0.01267  Uiso   1.00
C337   C     0.76780   0.07250   0.68150   0.01267  Uiso   1.00
C338   C     0.90970   0.30040   0.61200   0.01267  Uiso   1.00
C339   C     0.89440   0.32480   0.64390   0.01267  Uiso   1.00
C340   C     0.86460   0.35860   0.63980   0.01267  Uiso   1.00
C341   C     0.85320   0.36920   0.60380   0.01267  Uiso   1.00
C342   C     0.87730   0.34480   0.56820   0.01267  Uiso   1.00
C343   C     0.90330   0.31090   0.57530   0.01267  Uiso   1.00
C344   C     0.82500   0.40820   0.59750   0.01267  Uiso   1.00
C345   C     0.08020   0.26340   0.56520   0.01267  Uiso   1.00
C346   C     0.07940   0.29870   0.55350   0.01267  Uiso   1.00
C347   C     0.10430   0.30470   0.51800   0.01267  Uiso   1.00
C348   C     0.12860   0.27360   0.49240   0.01267  Uiso   1.00
C349   C     0.12370   0.23570   0.50240   0.01267  Uiso   1.00
C350   C     0.10250   0.23080   0.53910   0.01267  Uiso   1.00
C351   C     0.15060   0.27910   0.45200   0.01267  Uiso   1.00
C352   C     0.49990   0.72750   0.65860   0.01267  Uiso   1.00
C353   C     0.53450   0.68860   0.65310   0.01267  Uiso   1.00
C354   C     0.46800   0.73120   0.69560   0.01267  Uiso   1.00
C355   C     0.53840   0.76460   0.66400   0.01267  Uiso   1.00
C356   C     0.46320   0.72680   0.62230   0.01267  Uiso   1.00
C357   C     0.60610   0.65850   0.68480   0.01267  Uiso   1.00
C358   C     0.61100   0.62770   0.65430   0.01267  Uiso   1.00
C359   C     0.64860   0.59780   0.65530   0.01267  Uiso   1.00
C360   C     0.68260   0.59650   0.68680   0.01267  Uiso   1.00
C361   C     0.67800   0.62910   0.71980   0.01267  Uiso   1.00
C362   C     0.64260   0.65890   0.71710   0.01267  Uiso   1.00
C363   C     0.72250   0.56410   0.69040   0.01267  Uiso   1.00
C364   C     0.38890   0.69890   0.72230   0.01267  Uiso   1.00
C365   C     0.35700   0.66760   0.71990   0.01267  Uiso   1.00
C366   C     0.31310   0.66580   0.74590   0.01267  Uiso   1.00
C367   C     0.30360   0.69770   0.77940   0.01267  Uiso   1.00
C368   C     0.33950   0.72860   0.78160   0.01267  Uiso   1.00
C369   C     0.38350   0.73040   0.75320   0.01267  Uiso   1.00
C370   C     0.25940   0.69790   0.80700   0.01267  Uiso   1.00
C371   C     0.53510   0.82910   0.64590   0.01267  Uiso   1.00
C372   C     0.58670   0.84040   0.65740   0.01267  Uiso   1.00
C373   C     0.61360   0.87550   0.64750   0.01267  Uiso   1.00
C374   C     0.58570   0.89840   0.62490   0.01267  Uiso   1.00
C375   C     0.53400   0.88730   0.61440   0.01267  Uiso   1.00
C376   C     0.51000   0.85440   0.62300   0.01267  Uiso   1.00
C377   C     0.61950   0.93720   0.61440   0.01267  Uiso   1.00
C378   C     0.46820   0.74310   0.55530   0.01267  Uiso   1.00
C379   C     0.49560   0.76580   0.53150   0.01267  Uiso   1.00
C380   C     0.47290   0.77500   0.49630   0.01267  Uiso   1.00
C381   C     0.41720   0.76110   0.48650   0.01267  Uiso   1.00
C382   C     0.39160   0.73740   0.51010   0.01267  Uiso   1.00
C383   C     0.41490   0.73000   0.54650   0.01267  Uiso   1.00
C384   C     0.39330   0.76810   0.44930   0.01267  Uiso   1.00
C385   C     0.66880   0.44950   0.62510   0.01267  Uiso   1.00
C386   C     0.66720   0.47200   0.59160   0.01267  Uiso   1.00
C387   C     0.70300   0.48030   0.56030   0.01267  Uiso   1.00
C388   C     0.79520   0.51910   0.56820   0.01267  Uiso   1.00
C389   C     0.83350   0.53760   0.60230   0.01267  Uiso   1.00
C390   C     0.87590   0.52860   0.66350   0.01267  Uiso   1.00
C391   C     0.87810   0.50060   0.69320   0.01267  Uiso   1.00
C392   C     0.83910   0.48040   0.71390   0.01267  Uiso   1.00
C393   C     0.75400   0.44870   0.72180   0.01267  Uiso   1.00
C394   C     0.71060   0.43730   0.69060   0.01267  Uiso   1.00
C395   C     0.24310   0.31530   0.86260   0.01267  Uiso   1.00
C396   C     0.20260   0.30780   0.89300   0.01267  Uiso   1.00
C397   C     0.18200   0.26840   0.89870   0.01267  Uiso   1.00
C398   C     0.20960   0.19670   0.91090   0.01267  Uiso   1.00
C399   C     0.26190   0.17160   0.91500   0.01267  Uiso   1.00
C400   C     0.35100   0.16120   0.89010   0.01267  Uiso   1.00
C401   C     0.38770   0.16980   0.85710   0.01267  Uiso   1.00
C402   C     0.40390   0.21020   0.85100   0.01267  Uiso   1.00
C403   C     0.37770   0.27230   0.82970   0.01267  Uiso   1.00
C404   C     0.32560   0.29460   0.83210   0.01267  Uiso   1.00
C405   C     0.23450   0.68560   0.94100   0.01267  Uiso   1.00
C406   C     0.20400   0.65430   0.91570   0.01267  Uiso   1.00
C407   C     0.15220   0.66300   0.89930   0.01267  Uiso   1.00
C408   C     0.10510   0.69840   0.84920   0.01267  Uiso   1.00
C409   C     0.11360   0.72840   0.82330   0.01267  Uiso   1.00
C410   C     0.15930   0.79420   0.82340   0.01267  Uiso   1.00
C411   C     0.18880   0.82720   0.84870   0.01267  Uiso   1.00
C412   C     0.23920   0.82070   0.86780   0.01267  Uiso   1.00
C413   C     0.29220   0.78120   0.91720   0.01267  Uiso   1.00
C414   C     0.28340   0.74730   0.93860   0.01267  Uiso   1.00
C415   C     0.73260   0.01900   0.55460   0.01267  Uiso   1.00
C416   C     0.67640   0.03620   0.55370   0.01267  Uiso   1.00
C417   C     0.65480   0.05720   0.59070   0.01267  Uiso   1.00
C418   C     0.61910   0.04950   0.65910   0.01267  Uiso   1.00
C419   C     0.61560   0.02390   0.68940   0.01267  Uiso   1.00
C420   C     0.67720   0.97220   0.71630   0.01267  Uiso   1.00
C421   C     0.73260   0.95490   0.71640   0.01267  Uiso   1.00
C422   C     0.75770   0.93570   0.68130   0.01267  Uiso   1.00
C423   C     0.79590   0.94430   0.61330   0.01267  Uiso   1.00
C424   C     0.79200   0.97290   0.58460   0.01267  Uiso   1.00
N33    N     0.80350   0.45830   0.16000   0.01267  Uiso   1.00
N34    N     0.75040   0.49250   0.08250   0.01267  Uiso   1.00
N35    N     0.65890   0.51010   0.12960   0.01267  Uiso   1.00
N36    N     0.71040   0.48180   0.20210   0.01267  Uiso   1.00
N37    N     0.20710   0.29430   0.36540   0.01267  Uiso   1.00
N38    N     0.27770   0.24060   0.40970   0.01267  Uiso   1.00
N39    N     0.20470   0.17720   0.38320   0.01267  Uiso   1.00
N40    N     0.13950   0.23100   0.34100   0.01267  Uiso   1.00
N41    N     0.24570   0.71380   0.41530   0.01267  Uiso   1.00
N42    N     0.34400   0.68830   0.36810   0.01267  Uiso   1.00
N43    N     0.36110   0.76500   0.34900   0.01267  Uiso   1.00
N44    N     0.26130   0.79400   0.39870   0.01267  Uiso   1.00
N45    N     0.76360   0.98790   0.08000   0.01267  Uiso   1.00
N46    N     0.85930   0.03170   0.12010   0.01267  Uiso   1.00
N47    N     0.82620   0.00760   0.19420   0.01267  Uiso   1.00
N48    N     0.72760   0.96410   0.15300   0.01267  Uiso   1.00
N49    N     0.69650   0.45830   0.66000   0.01267  Uiso   1.00
N50    N     0.74960   0.49250   0.58250   0.01267  Uiso   1.00
N51    N     0.84110   0.51010   0.62960   0.01267  Uiso   1.00
N52    N     0.78960   0.48180   0.70210   0.01267  Uiso   1.00
N53    N     0.29290   0.29430   0.86540   0.01267  Uiso   1.00
N54    N     0.22230   0.24060   0.90970   0.01267  Uiso   1.00
N55    N     0.29530   0.17720   0.88320   0.01267  Uiso   1.00
N56    N     0.36050   0.23100   0.84100   0.01267  Uiso   1.00
N57    N     0.25430   0.71380   0.91530   0.01267  Uiso   1.00
N58    N     0.15600   0.68830   0.86810   0.01267  Uiso   1.00
N59    N     0.13890   0.76500   0.84900   0.01267  Uiso   1.00
N60    N     0.23870   0.79400   0.89870   0.01267  Uiso   1.00
N61    N     0.73640   0.98790   0.58000   0.01267  Uiso   1.00
N62    N     0.64070   0.03170   0.62010   0.01267  Uiso   1.00
N63    N     0.67380   0.00760   0.69420   0.01267  Uiso   1.00
N64    N     0.77240   0.96410   0.65300   0.01267  Uiso   1.00
O49    O     0.42870   0.19510   0.18167   0.01267  Uiso   1.00
O50    O     0.56410   0.18703   0.17663   0.01267  Uiso   1.00
O51    O     0.56110   0.26540   0.11190   0.01267  Uiso   1.00
O52    O     0.44110   0.25830   0.10180   0.01267  Uiso   1.00
O53    O     0.24460   0.15880   0.30200   0.01267  Uiso   1.00
O54    O     0.26010   0.22370   0.32450   0.01267  Uiso   1.00
O55    O     0.75770   0.07170   0.21330   0.01267  Uiso   1.00
O56    O     0.74030   0.04830   0.15030   0.01267  Uiso   1.00
O57    O     0.68590   0.43050   0.12830   0.01267  Uiso   1.00
O58    O     0.68310   0.41720   0.06330   0.01267  Uiso   1.00
O59    O     0.34410   0.31440   0.94430   0.01267  Uiso   1.00
O60    O     0.33270   0.24760   0.92810   0.01267  Uiso   1.00
O61    O     0.92840   0.68980   0.18590   0.01267  Uiso   1.00
O62    O     0.07160   0.69905   0.19360   0.01267  Uiso   1.00
O63    O     0.99210   0.79760   0.15760   0.01267  Uiso   1.00
O64    O     0.00260   0.73610   0.08940   0.01267  Uiso   1.00
O65    O     0.77110   0.53920   0.15820   0.01267  Uiso   1.00
O66    O     0.75220   0.56230   0.22100   0.01267  Uiso   1.00
O67    O     0.26900   0.66800   0.30440   0.01267  Uiso   1.00
O68    O     0.24800   0.72730   0.33400   0.01267  Uiso   1.00
O69    O     0.83890   0.94360   0.12790   0.01267  Uiso   1.00
O70    O     0.91560   0.95680   0.09530   0.01267  Uiso   1.00
O71    O     0.08070   0.78690   0.92460   0.01267  Uiso   1.00
O72    O     0.15100   0.75170   0.93580   0.01267  Uiso   1.00
O73    O     0.07130   0.19510   0.68167   0.01267  Uiso   1.00
O74    O     0.93590   0.18703   0.67663   0.01267  Uiso   1.00
O75    O     0.93890   0.26540   0.61190   0.01267  Uiso   1.00
O76    O     0.05890   0.25830   0.60180   0.01267  Uiso   1.00
O77    O     0.25540   0.15880   0.80200   0.01267  Uiso   1.00
O78    O     0.23990   0.22370   0.82450   0.01267  Uiso   1.00
O79    O     0.74230   0.07170   0.71330   0.01267  Uiso   1.00
O80    O     0.75970   0.04830   0.65030   0.01267  Uiso   1.00
O81    O     0.81410   0.43050   0.62830   0.01267  Uiso   1.00
O82    O     0.81690   0.41720   0.56330   0.01267  Uiso   1.00
O83    O     0.15590   0.31440   0.44430   0.01267  Uiso   1.00
O84    O     0.16730   0.24760   0.42810   0.01267  Uiso   1.00
O85    O     0.57160   0.68980   0.68590   0.01267  Uiso   1.00
O86    O     0.42840   0.69905   0.69360   0.01267  Uiso   1.00
O87    O     0.50790   0.79760   0.65760   0.01267  Uiso   1.00
O88    O     0.49740   0.73610   0.58940   0.01267  Uiso   1.00
O89    O     0.72890   0.53920   0.65820   0.01267  Uiso   1.00
O90    O     0.74780   0.56230   0.72100   0.01267  Uiso   1.00
O91    O     0.23100   0.66800   0.80440   0.01267  Uiso   1.00
O92    O     0.25200   0.72730   0.83400   0.01267  Uiso   1.00
O93    O     0.66110   0.94360   0.62790   0.01267  Uiso   1.00
O94    O     0.58440   0.95680   0.59530   0.01267  Uiso   1.00
O95    O     0.41930   0.78690   0.42460   0.01267  Uiso   1.00
O96    O     0.34900   0.75170   0.43580   0.01267  Uiso   1.00
Ni17   Ni    0.70491   0.01534   0.36982   0.01267  Uiso   1.00
Ni18   Ni    0.29498   0.24409   0.59695   0.01267  Uiso   1.00
Ni19   Ni    0.21454   0.76023   0.61299   0.01267  Uiso   1.00
Ni20   Ni    0.71382   0.52157   0.87480   0.01267  Uiso   1.00
Ni21   Ni    0.79509   0.01534   0.86982   0.01267  Uiso   1.00
Ni22   Ni    0.20502   0.24409   0.09695   0.01267  Uiso   1.00
Ni23   Ni    0.28546   0.76023   0.11299   0.01267  Uiso   1.00
Ni24   Ni    0.78618   0.52157   0.37480   0.01267  Uiso   1.00
H513   H     0.98460   0.01590   0.53520   0.01267  Uiso   1.00
H514   H     0.93740   0.99660   0.55780   0.01267  Uiso   1.00
H515   H     0.98430   0.03580   0.65780   0.01267  Uiso   1.00
H516   H     0.93350   0.04790   0.63390   0.01267  Uiso   1.00
H517   H     0.00520   0.96210   0.58600   0.01267  Uiso   1.00
H518   H     0.05600   0.98520   0.57210   0.01267  Uiso   1.00
H519   H     0.01050   0.08500   0.60590   0.01267  Uiso   1.00
H520   H     0.05750   0.05990   0.62230   0.01267  Uiso   1.00
H521   H     0.86480   0.11190   0.55080   0.01267  Uiso   1.00
H522   H     0.80190   0.11830   0.50270   0.01267  Uiso   1.00
H523   H     0.82960   0.00630   0.45490   0.01267  Uiso   1.00
H524   H     0.89760   0.99970   0.50110   0.01267  Uiso   1.00
H525   H     0.89510   0.04500   0.69560   0.01267  Uiso   1.00
H526   H     0.85710   0.03520   0.75300   0.01267  Uiso   1.00
H527   H     0.89700   0.91770   0.73280   0.01267  Uiso   1.00
H528   H     0.93120   0.92850   0.67130   0.01267  Uiso   1.00
H529   H     0.06170   0.95510   0.69420   0.01267  Uiso   1.00
H530   H     0.09450   0.89830   0.70470   0.01267  Uiso   1.00
H531   H     0.14040   0.86980   0.59120   0.01267  Uiso   1.00
H532   H     0.10120   0.92840   0.57830   0.01267  Uiso   1.00
H533   H     0.11910   0.07150   0.50530   0.01267  Uiso   1.00
H534   H     0.18910   0.11350   0.49910   0.01267  Uiso   1.00
H535   H     0.16160   0.16410   0.61150   0.01267  Uiso   1.00
H536   H     0.09570   0.11670   0.61870   0.01267  Uiso   1.00
H537   H     0.42970   0.49040   0.62630   0.01267  Uiso   1.00
H538   H     0.43800   0.48160   0.57970   0.01267  Uiso   1.00
H539   H     0.56370   0.50600   0.63650   0.01267  Uiso   1.00
H540   H     0.55130   0.55220   0.64750   0.01267  Uiso   1.00
H541   H     0.55010   0.49420   0.56730   0.01267  Uiso   1.00
H542   H     0.50660   0.51780   0.54550   0.01267  Uiso   1.00
H543   H     0.44170   0.56320   0.63730   0.01267  Uiso   1.00
H544   H     0.48510   0.58410   0.61260   0.01267  Uiso   1.00
H545   H     0.38780   0.42530   0.58690   0.01267  Uiso   1.00
H546   H     0.35240   0.36610   0.59670   0.01267  Uiso   1.00
H547   H     0.48340   0.33300   0.65000   0.01267  Uiso   1.00
H548   H     0.52420   0.39600   0.64790   0.01267  Uiso   1.00
H549   H     0.48700   0.46480   0.72400   0.01267  Uiso   1.00
H550   H     0.52640   0.46190   0.78520   0.01267  Uiso   1.00
H551   H     0.64530   0.53220   0.75950   0.01267  Uiso   1.00
H552   H     0.59790   0.55160   0.70810   0.01267  Uiso   1.00
H553   H     0.62880   0.60680   0.56150   0.01267  Uiso   1.00
H554   H     0.69370   0.61230   0.51270   0.01267  Uiso   1.00
H555   H     0.64860   0.50560   0.45490   0.01267  Uiso   1.00
H556   H     0.58760   0.49990   0.50550   0.01267  Uiso   1.00
H557   H     0.35990   0.56980   0.52410   0.01267  Uiso   1.00
H558   H     0.30110   0.62220   0.51820   0.01267  Uiso   1.00
H559   H     0.34440   0.67360   0.62800   0.01267  Uiso   1.00
H560   H     0.40980   0.62550   0.63250   0.01267  Uiso   1.00
H561   H     0.67060   0.12270   0.34370   0.01267  Uiso   1.00
H562   H     0.65800   0.08230   0.31550   0.01267  Uiso   1.00
H563   H     0.75140   0.10920   0.30540   0.01267  Uiso   1.00
H564   H     0.76580   0.10090   0.34850   0.01267  Uiso   1.00
H565   H     0.80610   0.06000   0.29890   0.01267  Uiso   1.00
H566   H     0.74880   0.04130   0.28690   0.01267  Uiso   1.00
H567   H     0.83790   0.99330   0.32120   0.01267  Uiso   1.00
H568   H     0.78220   0.97820   0.30190   0.01267  Uiso   1.00
H569   H     0.81580   0.96900   0.38040   0.01267  Uiso   1.00
H570   H     0.80740   0.93370   0.34500   0.01267  Uiso   1.00
H571   H     0.74020   0.91050   0.39740   0.01267  Uiso   1.00
H572   H     0.74620   0.95160   0.42540   0.01267  Uiso   1.00
H573   H     0.66530   0.91780   0.43210   0.01267  Uiso   1.00
H574   H     0.65030   0.92540   0.38880   0.01267  Uiso   1.00
H575   H     0.60410   0.97040   0.43920   0.01267  Uiso   1.00
H576   H     0.66040   0.98940   0.45310   0.01267  Uiso   1.00
H577   H     0.62910   0.05610   0.43810   0.01267  Uiso   1.00
H578   H     0.57320   0.04150   0.41880   0.01267  Uiso   1.00
H579   H     0.59690   0.06710   0.35690   0.01267  Uiso   1.00
H580   H     0.60720   0.10270   0.39190   0.01267  Uiso   1.00
H581   H     0.26480   0.32930   0.56870   0.01267  Uiso   1.00
H582   H     0.21080   0.31930   0.54510   0.01267  Uiso   1.00
H583   H     0.25400   0.27040   0.50270   0.01267  Uiso   1.00
H584   H     0.27910   0.31270   0.50100   0.01267  Uiso   1.00
H585   H     0.34650   0.26900   0.49360   0.01267  Uiso   1.00
H586   H     0.35390   0.29390   0.53620   0.01267  Uiso   1.00
H587   H     0.39580   0.20090   0.52430   0.01267  Uiso   1.00
H588   H     0.40780   0.23490   0.55970   0.01267  Uiso   1.00
H589   H     0.34740   0.16430   0.56890   0.01267  Uiso   1.00
H590   H     0.40760   0.17230   0.58410   0.01267  Uiso   1.00
H591   H     0.31810   0.15600   0.63080   0.01267  Uiso   1.00
H592   H     0.37250   0.16760   0.65430   0.01267  Uiso   1.00
H593   H     0.30030   0.18360   0.69540   0.01267  Uiso   1.00
H594   H     0.33370   0.22150   0.68960   0.01267  Uiso   1.00
H595   H     0.23010   0.20560   0.66170   0.01267  Uiso   1.00
H596   H     0.24620   0.23540   0.69970   0.01267  Uiso   1.00
H597   H     0.17450   0.25570   0.64240   0.01267  Uiso   1.00
H598   H     0.19480   0.29090   0.67510   0.01267  Uiso   1.00
H599   H     0.18030   0.31470   0.61480   0.01267  Uiso   1.00
H600   H     0.24120   0.31930   0.62800   0.01267  Uiso   1.00
H601   H     0.09170   0.75750   0.59960   0.01267  Uiso   1.00
H602   H     0.07640   0.71220   0.58800   0.01267  Uiso   1.00
H603   H     0.13810   0.71070   0.53270   0.01267  Uiso   1.00
H604   H     0.08500   0.73580   0.52930   0.01267  Uiso   1.00
H605   H     0.13410   0.79320   0.55140   0.01267  Uiso   1.00
H606   H     0.15270   0.77130   0.50950   0.01267  Uiso   1.00
H607   H     0.25840   0.79990   0.52210   0.01267  Uiso   1.00
H608   H     0.22360   0.82700   0.55410   0.01267  Uiso   1.00
H609   H     0.31880   0.78400   0.56920   0.01267  Uiso   1.00
H610   H     0.30970   0.83040   0.58000   0.01267  Uiso   1.00
H611   H     0.34830   0.77480   0.63360   0.01267  Uiso   1.00
H612   H     0.34350   0.82120   0.64860   0.01267  Uiso   1.00
H613   H     0.33270   0.78340   0.70060   0.01267  Uiso   1.00
H614   H     0.28380   0.81150   0.69610   0.01267  Uiso   1.00
H615   H     0.28150   0.72920   0.68200   0.01267  Uiso   1.00
H616   H     0.25790   0.75610   0.71950   0.01267  Uiso   1.00
H617   H     0.20090   0.69110   0.66850   0.01267  Uiso   1.00
H618   H     0.16980   0.71490   0.70540   0.01267  Uiso   1.00
H619   H     0.10820   0.69770   0.65330   0.01267  Uiso   1.00
H620   H     0.11410   0.74460   0.66160   0.01267  Uiso   1.00
H621   H     0.59080   0.56680   0.93370   0.01267  Uiso   1.00
H622   H     0.58600   0.54350   0.89050   0.01267  Uiso   1.00
H623   H     0.60960   0.61900   0.90470   0.01267  Uiso   1.00
H624   H     0.66460   0.62660   0.85620   0.01267  Uiso   1.00
H625   H     0.64300   0.58540   0.83480   0.01267  Uiso   1.00
H626   H     0.72210   0.57910   0.80320   0.01267  Uiso   1.00
H627   H     0.76020   0.61060   0.82760   0.01267  Uiso   1.00
H628   H     0.82170   0.56690   0.83540   0.01267  Uiso   1.00
H629   H     0.80050   0.55230   0.79190   0.01267  Uiso   1.00
H630   H     0.84210   0.49370   0.85430   0.01267  Uiso   1.00
H631   H     0.83230   0.47800   0.80900   0.01267  Uiso   1.00
H632   H     0.76750   0.43630   0.82430   0.01267  Uiso   1.00
H633   H     0.82220   0.42790   0.84470   0.01267  Uiso   1.00
H634   H     0.78870   0.45320   0.90330   0.01267  Uiso   1.00
H635   H     0.75810   0.41520   0.88250   0.01267  Uiso   1.00
H636   H     0.67180   0.43950   0.93350   0.01267  Uiso   1.00
H637   H     0.71340   0.47320   0.95100   0.01267  Uiso   1.00
H638   H     0.63220   0.50040   0.95830   0.01267  Uiso   1.00
H639   H     0.61500   0.48260   0.91500   0.01267  Uiso   1.00
H640   H     0.51540   0.01590   0.03520   0.01267  Uiso   1.00
H641   H     0.56260   0.99660   0.05780   0.01267  Uiso   1.00
H642   H     0.51570   0.03580   0.15780   0.01267  Uiso   1.00
H643   H     0.56650   0.04790   0.13390   0.01267  Uiso   1.00
H644   H     0.49480   0.96210   0.08600   0.01267  Uiso   1.00
H645   H     0.44400   0.98520   0.07210   0.01267  Uiso   1.00
H646   H     0.48950   0.08500   0.10590   0.01267  Uiso   1.00
H647   H     0.44250   0.05990   0.12230   0.01267  Uiso   1.00
H648   H     0.63520   0.11190   0.05080   0.01267  Uiso   1.00
H649   H     0.69810   0.11830   0.00270   0.01267  Uiso   1.00
H650   H     0.67040   0.00630   0.95490   0.01267  Uiso   1.00
H651   H     0.60240   0.99970   0.00110   0.01267  Uiso   1.00
H652   H     0.60490   0.04500   0.19560   0.01267  Uiso   1.00
H653   H     0.64290   0.03520   0.25300   0.01267  Uiso   1.00
H654   H     0.60300   0.91770   0.23280   0.01267  Uiso   1.00
H655   H     0.56880   0.92850   0.17130   0.01267  Uiso   1.00
H656   H     0.43830   0.95510   0.19420   0.01267  Uiso   1.00
H657   H     0.40550   0.89830   0.20470   0.01267  Uiso   1.00
H658   H     0.35960   0.86980   0.09120   0.01267  Uiso   1.00
H659   H     0.39880   0.92840   0.07830   0.01267  Uiso   1.00
H660   H     0.38090   0.07150   0.00530   0.01267  Uiso   1.00
H661   H     0.31090   0.11350   0.99910   0.01267  Uiso   1.00
H662   H     0.33840   0.16410   0.11150   0.01267  Uiso   1.00
H663   H     0.40430   0.11670   0.11870   0.01267  Uiso   1.00
H664   H     0.07030   0.49040   0.12630   0.01267  Uiso   1.00
H665   H     0.06200   0.48160   0.07970   0.01267  Uiso   1.00
H666   H     0.93630   0.50600   0.13650   0.01267  Uiso   1.00
H667   H     0.94870   0.55220   0.14750   0.01267  Uiso   1.00
H668   H     0.94990   0.49420   0.06730   0.01267  Uiso   1.00
H669   H     0.99340   0.51780   0.04550   0.01267  Uiso   1.00
H670   H     0.05830   0.56320   0.13730   0.01267  Uiso   1.00
H671   H     0.01490   0.58410   0.11260   0.01267  Uiso   1.00
H672   H     0.11220   0.42530   0.08690   0.01267  Uiso   1.00
H673   H     0.14760   0.36610   0.09670   0.01267  Uiso   1.00
H674   H     0.01660   0.33300   0.15000   0.01267  Uiso   1.00
H675   H     0.97580   0.39600   0.14790   0.01267  Uiso   1.00
H676   H     0.01300   0.46480   0.22400   0.01267  Uiso   1.00
H677   H     0.97360   0.46190   0.28520   0.01267  Uiso   1.00
H678   H     0.85470   0.53220   0.25950   0.01267  Uiso   1.00
H679   H     0.90210   0.55160   0.20810   0.01267  Uiso   1.00
H680   H     0.87120   0.60680   0.06150   0.01267  Uiso   1.00
H681   H     0.80630   0.61230   0.01270   0.01267  Uiso   1.00
H682   H     0.85140   0.50560   0.95490   0.01267  Uiso   1.00
H683   H     0.91240   0.49990   0.00550   0.01267  Uiso   1.00
H684   H     0.14010   0.56980   0.02410   0.01267  Uiso   1.00
H685   H     0.19890   0.62220   0.01820   0.01267  Uiso   1.00
H686   H     0.15560   0.67360   0.12800   0.01267  Uiso   1.00
H687   H     0.09020   0.62550   0.13250   0.01267  Uiso   1.00
H688   H     0.82940   0.12270   0.84370   0.01267  Uiso   1.00
H689   H     0.84200   0.08230   0.81550   0.01267  Uiso   1.00
H690   H     0.74860   0.10920   0.80540   0.01267  Uiso   1.00
H691   H     0.73420   0.10090   0.84850   0.01267  Uiso   1.00
H692   H     0.69390   0.06000   0.79890   0.01267  Uiso   1.00
H693   H     0.75120   0.04130   0.78690   0.01267  Uiso   1.00
H694   H     0.66210   0.99330   0.82120   0.01267  Uiso   1.00
H695   H     0.71780   0.97820   0.80190   0.01267  Uiso   1.00
H696   H     0.68420   0.96900   0.88040   0.01267  Uiso   1.00
H697   H     0.69260   0.93370   0.84500   0.01267  Uiso   1.00
H698   H     0.75980   0.91050   0.89740   0.01267  Uiso   1.00
H699   H     0.75380   0.95160   0.92540   0.01267  Uiso   1.00
H700   H     0.83470   0.91780   0.93210   0.01267  Uiso   1.00
H701   H     0.84970   0.92540   0.88880   0.01267  Uiso   1.00
H702   H     0.89590   0.97040   0.93920   0.01267  Uiso   1.00
H703   H     0.83960   0.98940   0.95310   0.01267  Uiso   1.00
H704   H     0.87090   0.05610   0.93810   0.01267  Uiso   1.00
H705   H     0.92680   0.04150   0.91880   0.01267  Uiso   1.00
H706   H     0.90310   0.06710   0.85690   0.01267  Uiso   1.00
H707   H     0.89280   0.10270   0.89190   0.01267  Uiso   1.00
H708   H     0.23520   0.32930   0.06870   0.01267  Uiso   1.00
H709   H     0.28920   0.31930   0.04510   0.01267  Uiso   1.00
H710   H     0.24600   0.27040   0.00270   0.01267  Uiso   1.00
H711   H     0.22090   0.31270   0.00100   0.01267  Uiso   1.00
H712   H     0.15350   0.26900   0.99360   0.01267  Uiso   1.00
H713   H     0.14610   0.29390   0.03620   0.01267  Uiso   1.00
H714   H     0.10420   0.20090   0.02430   0.01267  Uiso   1.00
H715   H     0.09220   0.23490   0.05970   0.01267  Uiso   1.00
H716   H     0.15260   0.16430   0.06890   0.01267  Uiso   1.00
H717   H     0.09240   0.17230   0.08410   0.01267  Uiso   1.00
H718   H     0.18190   0.15600   0.13080   0.01267  Uiso   1.00
H719   H     0.12750   0.16760   0.15430   0.01267  Uiso   1.00
H720   H     0.19970   0.18360   0.19540   0.01267  Uiso   1.00
H721   H     0.16630   0.22150   0.18960   0.01267  Uiso   1.00
H722   H     0.26990   0.20560   0.16170   0.01267  Uiso   1.00
H723   H     0.25380   0.23540   0.19970   0.01267  Uiso   1.00
H724   H     0.32550   0.25570   0.14240   0.01267  Uiso   1.00
H725   H     0.30520   0.29090   0.17510   0.01267  Uiso   1.00
H726   H     0.31970   0.31470   0.11480   0.01267  Uiso   1.00
H727   H     0.25880   0.31930   0.12800   0.01267  Uiso   1.00
H728   H     0.40830   0.75750   0.09960   0.01267  Uiso   1.00
H729   H     0.42360   0.71220   0.08800   0.01267  Uiso   1.00
H730   H     0.36190   0.71070   0.03270   0.01267  Uiso   1.00
H731   H     0.41500   0.73580   0.02930   0.01267  Uiso   1.00
H732   H     0.36590   0.79320   0.05140   0.01267  Uiso   1.00
H733   H     0.34730   0.77130   0.00950   0.01267  Uiso   1.00
H734   H     0.24160   0.79990   0.02210   0.01267  Uiso   1.00
H735   H     0.27640   0.82700   0.05410   0.01267  Uiso   1.00
H736   H     0.18120   0.78400   0.06920   0.01267  Uiso   1.00
H737   H     0.19030   0.83040   0.08000   0.01267  Uiso   1.00
H738   H     0.15170   0.77480   0.13360   0.01267  Uiso   1.00
H739   H     0.15650   0.82120   0.14860   0.01267  Uiso   1.00
H740   H     0.16730   0.78340   0.20060   0.01267  Uiso   1.00
H741   H     0.21620   0.81150   0.19610   0.01267  Uiso   1.00
H742   H     0.21850   0.72920   0.18200   0.01267  Uiso   1.00
H743   H     0.24210   0.75610   0.21950   0.01267  Uiso   1.00
H744   H     0.29910   0.69110   0.16850   0.01267  Uiso   1.00
H745   H     0.33020   0.71490   0.20540   0.01267  Uiso   1.00
H746   H     0.39180   0.69770   0.15330   0.01267  Uiso   1.00
H747   H     0.38590   0.74460   0.16160   0.01267  Uiso   1.00
H748   H     0.90920   0.56680   0.43370   0.01267  Uiso   1.00
H749   H     0.91400   0.54350   0.39050   0.01267  Uiso   1.00
H750   H     0.89040   0.61900   0.40470   0.01267  Uiso   1.00
H751   H     0.83540   0.62660   0.35620   0.01267  Uiso   1.00
H752   H     0.85700   0.58540   0.33480   0.01267  Uiso   1.00
H753   H     0.77790   0.57910   0.30320   0.01267  Uiso   1.00
H754   H     0.73980   0.61060   0.32760   0.01267  Uiso   1.00
H755   H     0.67830   0.56690   0.33540   0.01267  Uiso   1.00
H756   H     0.69950   0.55230   0.29190   0.01267  Uiso   1.00
H757   H     0.65790   0.49370   0.35430   0.01267  Uiso   1.00
H758   H     0.66770   0.47800   0.30900   0.01267  Uiso   1.00
H759   H     0.73250   0.43630   0.32430   0.01267  Uiso   1.00
H760   H     0.67780   0.42790   0.34470   0.01267  Uiso   1.00
H761   H     0.71130   0.45320   0.40330   0.01267  Uiso   1.00
H762   H     0.74190   0.41520   0.38250   0.01267  Uiso   1.00
H763   H     0.82820   0.43950   0.43350   0.01267  Uiso   1.00
H764   H     0.78660   0.47320   0.45100   0.01267  Uiso   1.00
H765   H     0.86780   0.50040   0.45830   0.01267  Uiso   1.00
H766   H     0.88500   0.48260   0.41500   0.01267  Uiso   1.00
C425   C     0.99530   0.02440   0.59690   0.01267  Uiso   1.00
C426   C     0.96120   0.01970   0.55870   0.01267  Uiso   1.00
C427   C     0.96130   0.02750   0.63470   0.01267  Uiso   1.00
C428   C     0.02890   0.98510   0.59300   0.01267  Uiso   1.00
C429   C     0.03200   0.06070   0.60040   0.01267  Uiso   1.00
C430   C     0.88860   0.05580   0.53030   0.01267  Uiso   1.00
C431   C     0.85850   0.09050   0.53080   0.01267  Uiso   1.00
C432   C     0.82010   0.09410   0.50310   0.01267  Uiso   1.00
C433   C     0.80830   0.06160   0.47530   0.01267  Uiso   1.00
C434   C     0.83720   0.02770   0.47460   0.01267  Uiso   1.00
C435   C     0.87800   0.02350   0.50190   0.01267  Uiso   1.00
C436   C     0.75910   0.06190   0.44430   0.01267  Uiso   1.00
C437   C     0.91230   0.98850   0.67780   0.01267  Uiso   1.00
C438   C     0.89370   0.01920   0.70270   0.01267  Uiso   1.00
C439   C     0.87330   0.01350   0.73720   0.01267  Uiso   1.00
C440   C     0.87440   0.97750   0.75140   0.01267  Uiso   1.00
C441   C     0.89640   0.94320   0.72490   0.01267  Uiso   1.00
C442   C     0.91590   0.94940   0.68860   0.01267  Uiso   1.00
C443   C     0.84870   0.97220   0.79210   0.01267  Uiso   1.00
C444   C     0.07500   0.94640   0.63390   0.01267  Uiso   1.00
C445   C     0.07550   0.93740   0.67300   0.01267  Uiso   1.00
C446   C     0.09560   0.90400   0.67840   0.01267  Uiso   1.00
C447   C     0.11990   0.87370   0.65000   0.01267  Uiso   1.00
C448   C     0.12270   0.88600   0.61170   0.01267  Uiso   1.00
C449   C     0.09980   0.92140   0.60410   0.01267  Uiso   1.00
C450   C     0.14800   0.83430   0.65450   0.01267  Uiso   1.00
C451   C     0.10180   0.08950   0.56250   0.01267  Uiso   1.00
C452   C     0.12950   0.08960   0.52730   0.01267  Uiso   1.00
C453   C     0.17060   0.11450   0.52330   0.01267  Uiso   1.00
C454   C     0.18550   0.14230   0.55670   0.01267  Uiso   1.00
C455   C     0.15490   0.14380   0.59040   0.01267  Uiso   1.00
C456   C     0.11410   0.11650   0.59460   0.01267  Uiso   1.00
C457   C     0.22980   0.17160   0.55210   0.01267  Uiso   1.00
C458   C     0.49400   0.52340   0.60680   0.01267  Uiso   1.00
C459   C     0.45680   0.48600   0.60520   0.01267  Uiso   1.00
C460   C     0.53500   0.52570   0.64240   0.01267  Uiso   1.00
C461   C     0.52970   0.51910   0.56910   0.01267  Uiso   1.00
C462   C     0.46140   0.56090   0.61220   0.01267  Uiso   1.00
C463   C     0.45790   0.41690   0.61450   0.01267  Uiso   1.00
C464   C     0.40760   0.40770   0.60030   0.01267  Uiso   1.00
C465   C     0.38730   0.37210   0.60640   0.01267  Uiso   1.00
C466   C     0.41160   0.34460   0.62470   0.01267  Uiso   1.00
C467   C     0.46460   0.35280   0.63880   0.01267  Uiso   1.00
C468   C     0.49030   0.38940   0.63660   0.01267  Uiso   1.00
C469   C     0.38310   0.30480   0.62540   0.01267  Uiso   1.00
C470   C     0.53780   0.51310   0.70980   0.01267  Uiso   1.00
C471   C     0.51630   0.48110   0.73300   0.01267  Uiso   1.00
C472   C     0.54200   0.47760   0.76740   0.01267  Uiso   1.00
C473   C     0.59170   0.49660   0.77760   0.01267  Uiso   1.00
C474   C     0.61100   0.52120   0.75390   0.01267  Uiso   1.00
C475   C     0.58410   0.53150   0.72180   0.01267  Uiso   1.00
C476   C     0.62330   0.49190   0.81730   0.01267  Uiso   1.00
C477   C     0.60180   0.55210   0.53800   0.01267  Uiso   1.00
C478   C     0.63330   0.58620   0.54040   0.01267  Uiso   1.00
C479   C     0.67190   0.58950   0.51090   0.01267  Uiso   1.00
C480   C     0.67840   0.55990   0.47950   0.01267  Uiso   1.00
C481   C     0.64560   0.52580   0.47650   0.01267  Uiso   1.00
C482   C     0.60880   0.52300   0.50670   0.01267  Uiso   1.00
C483   C     0.71930   0.56150   0.44530   0.01267  Uiso   1.00
C484   C     0.39090   0.59130   0.57970   0.01267  Uiso   1.00
C485   C     0.35730   0.59100   0.54480   0.01267  Uiso   1.00
C486   C     0.32120   0.62190   0.54160   0.01267  Uiso   1.00
C487   C     0.31480   0.65290   0.57360   0.01267  Uiso   1.00
C488   C     0.34820   0.65290   0.60690   0.01267  Uiso   1.00
C489   C     0.38690   0.62360   0.61040   0.01267  Uiso   1.00
C490   C     0.27580   0.68640   0.57080   0.01267  Uiso   1.00
C491   C     0.68090   0.09470   0.33720   0.01267  Uiso   1.00
C492   C     0.74530   0.09060   0.32470   0.01267  Uiso   1.00
C493   C     0.77020   0.05470   0.30900   0.01267  Uiso   1.00
C494   C     0.79970   0.98940   0.32680   0.01267  Uiso   1.00
C495   C     0.79470   0.96010   0.35650   0.01267  Uiso   1.00
C496   C     0.72610   0.93760   0.40300   0.01267  Uiso   1.00
C497   C     0.66960   0.93660   0.41280   0.01267  Uiso   1.00
C498   C     0.64030   0.97640   0.43020   0.01267  Uiso   1.00
C499   C     0.61150   0.04500   0.41330   0.01267  Uiso   1.00
C500   C     0.61800   0.07570   0.38080   0.01267  Uiso   1.00
C501   C     0.24400   0.30770   0.55400   0.01267  Uiso   1.00
C502   C     0.27610   0.29130   0.51750   0.01267  Uiso   1.00
C503   C     0.33090   0.27450   0.52020   0.01267  Uiso   1.00
C504   C     0.38100   0.21520   0.54890   0.01267  Uiso   1.00
C505   C     0.37330   0.18500   0.57910   0.01267  Uiso   1.00
C506   C     0.33970   0.17820   0.64370   0.01267  Uiso   1.00
C507   C     0.30810   0.20210   0.67630   0.01267  Uiso   1.00
C508   C     0.25790   0.22440   0.67290   0.01267  Uiso   1.00
C509   C     0.20350   0.27490   0.64970   0.01267  Uiso   1.00
C510   C     0.21340   0.29980   0.61840   0.01267  Uiso   1.00
C511   C     0.10560   0.73170   0.58740   0.01267  Uiso   1.00
C512   C     0.11890   0.73480   0.54400   0.01267  Uiso   1.00
C513   C     0.15120   0.76910   0.53790   0.01267  Uiso   1.00
C514   C     0.24430   0.80220   0.54920   0.01267  Uiso   1.00
C515   C     0.29220   0.80440   0.57890   0.01267  Uiso   1.00
C516   C     0.32370   0.79600   0.64480   0.01267  Uiso   1.00
C517   C     0.30120   0.78690   0.68410   0.01267  Uiso   1.00
C518   C     0.26370   0.75470   0.69090   0.01267  Uiso   1.00
C519   C     0.18080   0.71540   0.67780   0.01267  Uiso   1.00
C520   C     0.13300   0.71980   0.65190   0.01267  Uiso   1.00
C521   C     0.61060   0.55910   0.90900   0.01267  Uiso   1.00
C522   C     0.62490   0.59520   0.89240   0.01267  Uiso   1.00
C523   C     0.66030   0.59840   0.85900   0.01267  Uiso   1.00
C524   C     0.74590   0.58360   0.82630   0.01267  Uiso   1.00
C525   C     0.79050   0.55590   0.82010   0.01267  Uiso   1.00
C526   C     0.81450   0.48390   0.83480   0.01267  Uiso   1.00
C527   C     0.79210   0.44660   0.84580   0.01267  Uiso   1.00
C528   C     0.76470   0.44350   0.88120   0.01267  Uiso   1.00
C529   C     0.68680   0.46550   0.93010   0.01267  Uiso   1.00
C530   C     0.64500   0.49500   0.93080   0.01267  Uiso   1.00
C531   C     0.50470   0.02440   0.09690   0.01267  Uiso   1.00
C532   C     0.53880   0.01970   0.05870   0.01267  Uiso   1.00
C533   C     0.53870   0.02750   0.13470   0.01267  Uiso   1.00
C534   C     0.47110   0.98510   0.09300   0.01267  Uiso   1.00
C535   C     0.46800   0.06070   0.10040   0.01267  Uiso   1.00
C536   C     0.61140   0.05580   0.03030   0.01267  Uiso   1.00
C537   C     0.64150   0.09050   0.03080   0.01267  Uiso   1.00
C538   C     0.67990   0.09410   0.00310   0.01267  Uiso   1.00
C539   C     0.69170   0.06160   0.97530   0.01267  Uiso   1.00
C540   C     0.66280   0.02770   0.97460   0.01267  Uiso   1.00
C541   C     0.62200   0.02350   0.00190   0.01267  Uiso   1.00
C542   C     0.74090   0.06190   0.94430   0.01267  Uiso   1.00
C543   C     0.58770   0.98850   0.17780   0.01267  Uiso   1.00
C544   C     0.60630   0.01920   0.20270   0.01267  Uiso   1.00
C545   C     0.62670   0.01350   0.23720   0.01267  Uiso   1.00
C546   C     0.62560   0.97750   0.25140   0.01267  Uiso   1.00
C547   C     0.60360   0.94320   0.22490   0.01267  Uiso   1.00
C548   C     0.58410   0.94940   0.18860   0.01267  Uiso   1.00
C549   C     0.65130   0.97220   0.29210   0.01267  Uiso   1.00
C550   C     0.42500   0.94640   0.13390   0.01267  Uiso   1.00
C551   C     0.42450   0.93740   0.17300   0.01267  Uiso   1.00
C552   C     0.40440   0.90400   0.17840   0.01267  Uiso   1.00
C553   C     0.38010   0.87370   0.15000   0.01267  Uiso   1.00
C554   C     0.37730   0.88600   0.11170   0.01267  Uiso   1.00
C555   C     0.40020   0.92140   0.10410   0.01267  Uiso   1.00
C556   C     0.35200   0.83430   0.15450   0.01267  Uiso   1.00
C557   C     0.39820   0.08950   0.06250   0.01267  Uiso   1.00
C558   C     0.37050   0.08960   0.02730   0.01267  Uiso   1.00
C559   C     0.32940   0.11450   0.02330   0.01267  Uiso   1.00
C560   C     0.31450   0.14230   0.05670   0.01267  Uiso   1.00
C561   C     0.34510   0.14380   0.09040   0.01267  Uiso   1.00
C562   C     0.38590   0.11650   0.09460   0.01267  Uiso   1.00
C563   C     0.27020   0.17160   0.05210   0.01267  Uiso   1.00
C564   C     0.00600   0.52340   0.10680   0.01267  Uiso   1.00
C565   C     0.04320   0.48600   0.10520   0.01267  Uiso   1.00
C566   C     0.96500   0.52570   0.14240   0.01267  Uiso   1.00
C567   C     0.97030   0.51910   0.06910   0.01267  Uiso   1.00
C568   C     0.03860   0.56090   0.11220   0.01267  Uiso   1.00
C569   C     0.04210   0.41690   0.11450   0.01267  Uiso   1.00
C570   C     0.09240   0.40770   0.10030   0.01267  Uiso   1.00
C571   C     0.11270   0.37210   0.10640   0.01267  Uiso   1.00
C572   C     0.08840   0.34460   0.12470   0.01267  Uiso   1.00
C573   C     0.03540   0.35280   0.13880   0.01267  Uiso   1.00
C574   C     0.00970   0.38940   0.13660   0.01267  Uiso   1.00
C575   C     0.11690   0.30480   0.12540   0.01267  Uiso   1.00
C576   C     0.96220   0.51310   0.20980   0.01267  Uiso   1.00
C577   C     0.98370   0.48110   0.23300   0.01267  Uiso   1.00
C578   C     0.95800   0.47760   0.26740   0.01267  Uiso   1.00
C579   C     0.90830   0.49660   0.27760   0.01267  Uiso   1.00
C580   C     0.88900   0.52120   0.25390   0.01267  Uiso   1.00
C581   C     0.91590   0.53150   0.22180   0.01267  Uiso   1.00
C582   C     0.87670   0.49190   0.31730   0.01267  Uiso   1.00
C583   C     0.89820   0.55210   0.03800   0.01267  Uiso   1.00
C584   C     0.86670   0.58620   0.04040   0.01267  Uiso   1.00
C585   C     0.82810   0.58950   0.01090   0.01267  Uiso   1.00
C586   C     0.82160   0.55990   0.97950   0.01267  Uiso   1.00
C587   C     0.85440   0.52580   0.97650   0.01267  Uiso   1.00
C588   C     0.89120   0.52300   0.00670   0.01267  Uiso   1.00
C589   C     0.78070   0.56150   0.94530   0.01267  Uiso   1.00
C590   C     0.10910   0.59130   0.07970   0.01267  Uiso   1.00
C591   C     0.14270   0.59100   0.04480   0.01267  Uiso   1.00
C592   C     0.17880   0.62190   0.04160   0.01267  Uiso   1.00
C593   C     0.18520   0.65290   0.07360   0.01267  Uiso   1.00
C594   C     0.15180   0.65290   0.10690   0.01267  Uiso   1.00
C595   C     0.11310   0.62360   0.11040   0.01267  Uiso   1.00
C596   C     0.22420   0.68640   0.07080   0.01267  Uiso   1.00
C597   C     0.81910   0.09470   0.83720   0.01267  Uiso   1.00
C598   C     0.75470   0.09060   0.82470   0.01267  Uiso   1.00
C599   C     0.72980   0.05470   0.80900   0.01267  Uiso   1.00
C600   C     0.70030   0.98940   0.82680   0.01267  Uiso   1.00
C601   C     0.70530   0.96010   0.85650   0.01267  Uiso   1.00
C602   C     0.77390   0.93760   0.90300   0.01267  Uiso   1.00
C603   C     0.83040   0.93660   0.91280   0.01267  Uiso   1.00
C604   C     0.85970   0.97640   0.93020   0.01267  Uiso   1.00
C605   C     0.88850   0.04500   0.91330   0.01267  Uiso   1.00
C606   C     0.88200   0.07570   0.88080   0.01267  Uiso   1.00
C607   C     0.25600   0.30770   0.05400   0.01267  Uiso   1.00
C608   C     0.22390   0.29130   0.01750   0.01267  Uiso   1.00
C609   C     0.16910   0.27450   0.02020   0.01267  Uiso   1.00
C610   C     0.11900   0.21520   0.04890   0.01267  Uiso   1.00
C611   C     0.12670   0.18500   0.07910   0.01267  Uiso   1.00
C612   C     0.16030   0.17820   0.14370   0.01267  Uiso   1.00
C613   C     0.19190   0.20210   0.17630   0.01267  Uiso   1.00
C614   C     0.24210   0.22440   0.17290   0.01267  Uiso   1.00
C615   C     0.29650   0.27490   0.14970   0.01267  Uiso   1.00
C616   C     0.28660   0.29980   0.11840   0.01267  Uiso   1.00
C617   C     0.39440   0.73170   0.08740   0.01267  Uiso   1.00
C618   C     0.38110   0.73480   0.04400   0.01267  Uiso   1.00
C619   C     0.34880   0.76910   0.03790   0.01267  Uiso   1.00
C620   C     0.25570   0.80220   0.04920   0.01267  Uiso   1.00
C621   C     0.20780   0.80440   0.07890   0.01267  Uiso   1.00
C622   C     0.17630   0.79600   0.14480   0.01267  Uiso   1.00
C623   C     0.19880   0.78690   0.18410   0.01267  Uiso   1.00
C624   C     0.23630   0.75470   0.19090   0.01267  Uiso   1.00
C625   C     0.31920   0.71540   0.17780   0.01267  Uiso   1.00
C626   C     0.36700   0.71980   0.15190   0.01267  Uiso   1.00
C627   C     0.88940   0.55910   0.40900   0.01267  Uiso   1.00
C628   C     0.87510   0.59520   0.39240   0.01267  Uiso   1.00
C629   C     0.83970   0.59840   0.35900   0.01267  Uiso   1.00
C630   C     0.75410   0.58360   0.32630   0.01267  Uiso   1.00
C631   C     0.70950   0.55590   0.32010   0.01267  Uiso   1.00
C632   C     0.68550   0.48390   0.33480   0.01267  Uiso   1.00
C633   C     0.70790   0.44660   0.34580   0.01267  Uiso   1.00
C634   C     0.73530   0.44350   0.38120   0.01267  Uiso   1.00
C635   C     0.81320   0.46550   0.43010   0.01267  Uiso   1.00
C636   C     0.85500   0.49500   0.43080   0.01267  Uiso   1.00
N65    N     0.67550   0.07340   0.37270   0.01267  Uiso   1.00
N66    N     0.77490   0.02810   0.34140   0.01267  Uiso   1.00
N67    N     0.73290   0.95890   0.36680   0.01267  Uiso   1.00
N68    N     0.63630   0.00460   0.39850   0.01267  Uiso   1.00
N69    N     0.22980   0.28070   0.58060   0.01267  Uiso   1.00
N70    N     0.32910   0.23760   0.53830   0.01267  Uiso   1.00
N71    N     0.35390   0.20720   0.61390   0.01267  Uiso   1.00
N72    N     0.26040   0.25350   0.65120   0.01267  Uiso   1.00
N73    N     0.14840   0.72060   0.61150   0.01267  Uiso   1.00
N74    N     0.20590   0.76630   0.55290   0.01267  Uiso   1.00
N75    N     0.27590   0.79860   0.61740   0.01267  Uiso   1.00
N76    N     0.21560   0.75420   0.67330   0.01267  Uiso   1.00
N77    N     0.65510   0.53360   0.91720   0.01267  Uiso   1.00
N78    N     0.71350   0.58110   0.86220   0.01267  Uiso   1.00
N79    N     0.77600   0.51510   0.83260   0.01267  Uiso   1.00
N80    N     0.71280   0.46480   0.88750   0.01267  Uiso   1.00
N81    N     0.82450   0.07340   0.87270   0.01267  Uiso   1.00
N82    N     0.72510   0.02810   0.84140   0.01267  Uiso   1.00
N83    N     0.76710   0.95890   0.86680   0.01267  Uiso   1.00
N84    N     0.86370   0.00460   0.89850   0.01267  Uiso   1.00
N85    N     0.27020   0.28070   0.08060   0.01267  Uiso   1.00
N86    N     0.17090   0.23760   0.03830   0.01267  Uiso   1.00
N87    N     0.14610   0.20720   0.11390   0.01267  Uiso   1.00
N88    N     0.23960   0.25350   0.15120   0.01267  Uiso   1.00
N89    N     0.35160   0.72060   0.11150   0.01267  Uiso   1.00
N90    N     0.29410   0.76630   0.05290   0.01267  Uiso   1.00
N91    N     0.22410   0.79860   0.11740   0.01267  Uiso   1.00
N92    N     0.28440   0.75420   0.17330   0.01267  Uiso   1.00
N93    N     0.84490   0.53360   0.41720   0.01267  Uiso   1.00
N94    N     0.78650   0.58110   0.36220   0.01267  Uiso   1.00
N95    N     0.72400   0.51510   0.33260   0.01267  Uiso   1.00
N96    N     0.78720   0.46480   0.38750   0.01267  Uiso   1.00
O97    O     0.92890   0.05673   0.55916   0.01267  Uiso   1.00
O98    O     0.93670   0.99072   0.63880   0.01267  Uiso   1.00
O99    O     0.05480   0.98250   0.63050   0.01267  Uiso   1.00
O100   O     0.06130   0.06050   0.56300   0.01267  Uiso   1.00
O101   O     0.75020   0.03050   0.42060   0.01267  Uiso   1.00
O102   O     0.73710   0.09570   0.44530   0.01267  Uiso   1.00
O103   O     0.84110   0.93580   0.79990   0.01267  Uiso   1.00
O104   O     0.83610   0.00230   0.81390   0.01267  Uiso   1.00
O105   O     0.16350   0.81230   0.62510   0.01267  Uiso   1.00
O106   O     0.15060   0.82580   0.68950   0.01267  Uiso   1.00
O107   O     0.25490   0.17010   0.51830   0.01267  Uiso   1.00
O108   O     0.23940   0.19690   0.58180   0.01267  Uiso   1.00
O109   O     0.48890   0.45160   0.61030   0.01267  Uiso   1.00
O110   O     0.56610   0.55153   0.56962   0.01267  Uiso   1.00
O111   O     0.42370   0.55940   0.57915   0.01267  Uiso   1.00
O112   O     0.50500   0.51770   0.67580   0.01267  Uiso   1.00
O113   O     0.34030   0.29610   0.61150   0.01267  Uiso   1.00
O114   O     0.41240   0.28190   0.64790   0.01267  Uiso   1.00
O115   O     0.59760   0.46470   0.83790   0.01267  Uiso   1.00
O116   O     0.66460   0.50870   0.82420   0.01267  Uiso   1.00
O117   O     0.74870   0.59490   0.44970   0.01267  Uiso   1.00
O118   O     0.72420   0.53390   0.41870   0.01267  Uiso   1.00
O119   O     0.27050   0.71230   0.60180   0.01267  Uiso   1.00
O120   O     0.24750   0.68570   0.53990   0.01267  Uiso   1.00
O121   O     0.57110   0.05673   0.05916   0.01267  Uiso   1.00
O122   O     0.56330   0.99072   0.13880   0.01267  Uiso   1.00
O123   O     0.44520   0.98250   0.13050   0.01267  Uiso   1.00
O124   O     0.43870   0.06050   0.06300   0.01267  Uiso   1.00
O125   O     0.74980   0.03050   0.92060   0.01267  Uiso   1.00
O126   O     0.76290   0.09570   0.94530   0.01267  Uiso   1.00
O127   O     0.65890   0.93580   0.29990   0.01267  Uiso   1.00
O128   O     0.66390   0.00230   0.31390   0.01267  Uiso   1.00
O129   O     0.33650   0.81230   0.12510   0.01267  Uiso   1.00
O130   O     0.34940   0.82580   0.18950   0.01267  Uiso   1.00
O131   O     0.24510   0.17010   0.01830   0.01267  Uiso   1.00
O132   O     0.26060   0.19690   0.08180   0.01267  Uiso   1.00
O133   O     0.01110   0.45160   0.11030   0.01267  Uiso   1.00
O134   O     0.93390   0.55153   0.06962   0.01267  Uiso   1.00
O135   O     0.07630   0.55940   0.07915   0.01267  Uiso   1.00
O136   O     0.99500   0.51770   0.17580   0.01267  Uiso   1.00
O137   O     0.15970   0.29610   0.11150   0.01267  Uiso   1.00
O138   O     0.08760   0.28190   0.14790   0.01267  Uiso   1.00
O139   O     0.90240   0.46470   0.33790   0.01267  Uiso   1.00
O140   O     0.83540   0.50870   0.32420   0.01267  Uiso   1.00
O141   O     0.75130   0.59490   0.94970   0.01267  Uiso   1.00
O142   O     0.77580   0.53390   0.91870   0.01267  Uiso   1.00
O143   O     0.22950   0.71230   0.10180   0.01267  Uiso   1.00
O144   O     0.25250   0.68570   0.03990   0.01267  Uiso   1.00
Ni25   Ni    0.20491   0.98466   0.13018   0.01267  Uiso   1.00
Ni26   Ni    0.79498   0.75591   0.90305   0.01267  Uiso   1.00
Ni27   Ni    0.71454   0.23977   0.88701   0.01267  Uiso   1.00
Ni28   Ni    0.21382   0.47843   0.62520   0.01267  Uiso   1.00
Ni29   Ni    0.29509   0.98466   0.63018   0.01267  Uiso   1.00
Ni30   Ni    0.70502   0.75591   0.40305   0.01267  Uiso   1.00
Ni31   Ni    0.78546   0.23977   0.38701   0.01267  Uiso   1.00
Ni32   Ni    0.28618   0.47843   0.12520   0.01267  Uiso   1.00
H767   H     0.48460   0.98410   0.96480   0.01267  Uiso   1.00
H768   H     0.43740   0.00340   0.94220   0.01267  Uiso   1.00
H769   H     0.48430   0.96420   0.84220   0.01267  Uiso   1.00
H770   H     0.43350   0.95210   0.86610   0.01267  Uiso   1.00
H771   H     0.50520   0.03790   0.91400   0.01267  Uiso   1.00
H772   H     0.55600   0.01480   0.92790   0.01267  Uiso   1.00
H773   H     0.51050   0.91500   0.89410   0.01267  Uiso   1.00
H774   H     0.55750   0.94010   0.87770   0.01267  Uiso   1.00
H775   H     0.36480   0.88810   0.94920   0.01267  Uiso   1.00
H776   H     0.30190   0.88170   0.99730   0.01267  Uiso   1.00
H777   H     0.32960   0.99370   0.04510   0.01267  Uiso   1.00
H778   H     0.39760   0.00030   0.99890   0.01267  Uiso   1.00
H779   H     0.39510   0.95500   0.80440   0.01267  Uiso   1.00
H780   H     0.35710   0.96480   0.74700   0.01267  Uiso   1.00
H781   H     0.39700   0.08230   0.76720   0.01267  Uiso   1.00
H782   H     0.43120   0.07150   0.82870   0.01267  Uiso   1.00
H783   H     0.56170   0.04490   0.80580   0.01267  Uiso   1.00
H784   H     0.59450   0.10170   0.79530   0.01267  Uiso   1.00
H785   H     0.64040   0.13020   0.90880   0.01267  Uiso   1.00
H786   H     0.60120   0.07160   0.92170   0.01267  Uiso   1.00
H787   H     0.61910   0.92850   0.99470   0.01267  Uiso   1.00
H788   H     0.68910   0.88650   0.00090   0.01267  Uiso   1.00
H789   H     0.66160   0.83590   0.88850   0.01267  Uiso   1.00
H790   H     0.59570   0.88330   0.88130   0.01267  Uiso   1.00
H791   H     0.92970   0.50960   0.87370   0.01267  Uiso   1.00
H792   H     0.93800   0.51840   0.92030   0.01267  Uiso   1.00
H793   H     0.06370   0.49400   0.86350   0.01267  Uiso   1.00
H794   H     0.05130   0.44780   0.85250   0.01267  Uiso   1.00
H795   H     0.05010   0.50580   0.93270   0.01267  Uiso   1.00
H796   H     0.00660   0.48220   0.95450   0.01267  Uiso   1.00
H797   H     0.94170   0.43680   0.86270   0.01267  Uiso   1.00
H798   H     0.98510   0.41590   0.88740   0.01267  Uiso   1.00
H799   H     0.88780   0.57470   0.91310   0.01267  Uiso   1.00
H800   H     0.85240   0.63390   0.90330   0.01267  Uiso   1.00
H801   H     0.98340   0.66700   0.85000   0.01267  Uiso   1.00
H802   H     0.02420   0.60400   0.85210   0.01267  Uiso   1.00
H803   H     0.98700   0.53520   0.77600   0.01267  Uiso   1.00
H804   H     0.02640   0.53810   0.71480   0.01267  Uiso   1.00
H805   H     0.14530   0.46780   0.74050   0.01267  Uiso   1.00
H806   H     0.09790   0.44840   0.79190   0.01267  Uiso   1.00
H807   H     0.12880   0.39320   0.93850   0.01267  Uiso   1.00
H808   H     0.19370   0.38770   0.98730   0.01267  Uiso   1.00
H809   H     0.14860   0.49440   0.04510   0.01267  Uiso   1.00
H810   H     0.08760   0.50010   0.99450   0.01267  Uiso   1.00
H811   H     0.85990   0.43020   0.97590   0.01267  Uiso   1.00
H812   H     0.80110   0.37780   0.98180   0.01267  Uiso   1.00
H813   H     0.84440   0.32640   0.87200   0.01267  Uiso   1.00
H814   H     0.90980   0.37450   0.86750   0.01267  Uiso   1.00
H815   H     0.17060   0.87730   0.15630   0.01267  Uiso   1.00
H816   H     0.15800   0.91770   0.18450   0.01267  Uiso   1.00
H817   H     0.25140   0.89080   0.19460   0.01267  Uiso   1.00
H818   H     0.26580   0.89910   0.15150   0.01267  Uiso   1.00
H819   H     0.30610   0.94000   0.20110   0.01267  Uiso   1.00
H820   H     0.24880   0.95870   0.21310   0.01267  Uiso   1.00
H821   H     0.33790   0.00670   0.17880   0.01267  Uiso   1.00
H822   H     0.28220   0.02180   0.19810   0.01267  Uiso   1.00
H823   H     0.31580   0.03100   0.11960   0.01267  Uiso   1.00
H824   H     0.30740   0.06630   0.15500   0.01267  Uiso   1.00
H825   H     0.24020   0.08950   0.10260   0.01267  Uiso   1.00
H826   H     0.24620   0.04840   0.07460   0.01267  Uiso   1.00
H827   H     0.16530   0.08220   0.06790   0.01267  Uiso   1.00
H828   H     0.15030   0.07460   0.11120   0.01267  Uiso   1.00
H829   H     0.10410   0.02960   0.06080   0.01267  Uiso   1.00
H830   H     0.16040   0.01060   0.04690   0.01267  Uiso   1.00
H831   H     0.12910   0.94390   0.06190   0.01267  Uiso   1.00
H832   H     0.07320   0.95850   0.08120   0.01267  Uiso   1.00
H833   H     0.09690   0.93290   0.14310   0.01267  Uiso   1.00
H834   H     0.10720   0.89730   0.10810   0.01267  Uiso   1.00
H835   H     0.76480   0.67070   0.93130   0.01267  Uiso   1.00
H836   H     0.71080   0.68070   0.95490   0.01267  Uiso   1.00
H837   H     0.75400   0.72960   0.99730   0.01267  Uiso   1.00
H838   H     0.77910   0.68730   0.99900   0.01267  Uiso   1.00
H839   H     0.84650   0.73100   0.00640   0.01267  Uiso   1.00
H840   H     0.85390   0.70610   0.96380   0.01267  Uiso   1.00
H841   H     0.89580   0.79910   0.97570   0.01267  Uiso   1.00
H842   H     0.90780   0.76510   0.94030   0.01267  Uiso   1.00
H843   H     0.84740   0.83570   0.93110   0.01267  Uiso   1.00
H844   H     0.90760   0.82770   0.91590   0.01267  Uiso   1.00
H845   H     0.81810   0.84400   0.86920   0.01267  Uiso   1.00
H846   H     0.87250   0.83240   0.84570   0.01267  Uiso   1.00
H847   H     0.80030   0.81640   0.80460   0.01267  Uiso   1.00
H848   H     0.83370   0.77850   0.81040   0.01267  Uiso   1.00
H849   H     0.73010   0.79440   0.83830   0.01267  Uiso   1.00
H850   H     0.74620   0.76460   0.80030   0.01267  Uiso   1.00
H851   H     0.67450   0.74430   0.85760   0.01267  Uiso   1.00
H852   H     0.69480   0.70910   0.82490   0.01267  Uiso   1.00
H853   H     0.68030   0.68530   0.88520   0.01267  Uiso   1.00
H854   H     0.74120   0.68070   0.87200   0.01267  Uiso   1.00
H855   H     0.59170   0.24250   0.90040   0.01267  Uiso   1.00
H856   H     0.57640   0.28780   0.91200   0.01267  Uiso   1.00
H857   H     0.63810   0.28930   0.96730   0.01267  Uiso   1.00
H858   H     0.58500   0.26420   0.97070   0.01267  Uiso   1.00
H859   H     0.63410   0.20680   0.94860   0.01267  Uiso   1.00
H860   H     0.65270   0.22870   0.99050   0.01267  Uiso   1.00
H861   H     0.75840   0.20010   0.97790   0.01267  Uiso   1.00
H862   H     0.72360   0.17300   0.94590   0.01267  Uiso   1.00
H863   H     0.81880   0.21600   0.93080   0.01267  Uiso   1.00
H864   H     0.80970   0.16960   0.92000   0.01267  Uiso   1.00
H865   H     0.84830   0.22520   0.86640   0.01267  Uiso   1.00
H866   H     0.84350   0.17880   0.85140   0.01267  Uiso   1.00
H867   H     0.83270   0.21660   0.79940   0.01267  Uiso   1.00
H868   H     0.78380   0.18850   0.80390   0.01267  Uiso   1.00
H869   H     0.78150   0.27080   0.81800   0.01267  Uiso   1.00
H870   H     0.75790   0.24390   0.78050   0.01267  Uiso   1.00
H871   H     0.70090   0.30890   0.83150   0.01267  Uiso   1.00
H872   H     0.66980   0.28510   0.79460   0.01267  Uiso   1.00
H873   H     0.60820   0.30230   0.84670   0.01267  Uiso   1.00
H874   H     0.61410   0.25540   0.83840   0.01267  Uiso   1.00
H875   H     0.09080   0.43320   0.56630   0.01267  Uiso   1.00
H876   H     0.08600   0.45650   0.60950   0.01267  Uiso   1.00
H877   H     0.10960   0.38100   0.59530   0.01267  Uiso   1.00
H878   H     0.16460   0.37340   0.64380   0.01267  Uiso   1.00
H879   H     0.14300   0.41460   0.66520   0.01267  Uiso   1.00
H880   H     0.22210   0.42090   0.69680   0.01267  Uiso   1.00
H881   H     0.26020   0.38940   0.67240   0.01267  Uiso   1.00
H882   H     0.32170   0.43310   0.66460   0.01267  Uiso   1.00
H883   H     0.30050   0.44770   0.70810   0.01267  Uiso   1.00
H884   H     0.34210   0.50630   0.64570   0.01267  Uiso   1.00
H885   H     0.33230   0.52200   0.69100   0.01267  Uiso   1.00
H886   H     0.26750   0.56370   0.67570   0.01267  Uiso   1.00
H887   H     0.32220   0.57210   0.65530   0.01267  Uiso   1.00
H888   H     0.28870   0.54680   0.59670   0.01267  Uiso   1.00
H889   H     0.25810   0.58480   0.61750   0.01267  Uiso   1.00
H890   H     0.17180   0.56050   0.56650   0.01267  Uiso   1.00
H891   H     0.21340   0.52680   0.54900   0.01267  Uiso   1.00
H892   H     0.13220   0.49960   0.54170   0.01267  Uiso   1.00
H893   H     0.11500   0.51740   0.58500   0.01267  Uiso   1.00
H894   H     0.01540   0.98410   0.46480   0.01267  Uiso   1.00
H895   H     0.06260   0.00340   0.44220   0.01267  Uiso   1.00
H896   H     0.01570   0.96420   0.34220   0.01267  Uiso   1.00
H897   H     0.06650   0.95210   0.36610   0.01267  Uiso   1.00
H898   H     0.99480   0.03790   0.41400   0.01267  Uiso   1.00
H899   H     0.94400   0.01480   0.42790   0.01267  Uiso   1.00
H900   H     0.98950   0.91500   0.39410   0.01267  Uiso   1.00
H901   H     0.94250   0.94010   0.37770   0.01267  Uiso   1.00
H902   H     0.13520   0.88810   0.44920   0.01267  Uiso   1.00
H903   H     0.19810   0.88170   0.49730   0.01267  Uiso   1.00
H904   H     0.17040   0.99370   0.54510   0.01267  Uiso   1.00
H905   H     0.10240   0.00030   0.49890   0.01267  Uiso   1.00
H906   H     0.10490   0.95500   0.30440   0.01267  Uiso   1.00
H907   H     0.14290   0.96480   0.24700   0.01267  Uiso   1.00
H908   H     0.10300   0.08230   0.26720   0.01267  Uiso   1.00
H909   H     0.06880   0.07150   0.32870   0.01267  Uiso   1.00
H910   H     0.93830   0.04490   0.30580   0.01267  Uiso   1.00
H911   H     0.90550   0.10170   0.29530   0.01267  Uiso   1.00
H912   H     0.85960   0.13020   0.40880   0.01267  Uiso   1.00
H913   H     0.89880   0.07160   0.42170   0.01267  Uiso   1.00
H914   H     0.88090   0.92850   0.49470   0.01267  Uiso   1.00
H915   H     0.81090   0.88650   0.50090   0.01267  Uiso   1.00
H916   H     0.83840   0.83590   0.38850   0.01267  Uiso   1.00
H917   H     0.90430   0.88330   0.38130   0.01267  Uiso   1.00
H918   H     0.57030   0.50960   0.37370   0.01267  Uiso   1.00
H919   H     0.56200   0.51840   0.42030   0.01267  Uiso   1.00
H920   H     0.43630   0.49400   0.36350   0.01267  Uiso   1.00
H921   H     0.44870   0.44780   0.35250   0.01267  Uiso   1.00
H922   H     0.44990   0.50580   0.43270   0.01267  Uiso   1.00
H923   H     0.49340   0.48220   0.45450   0.01267  Uiso   1.00
H924   H     0.55830   0.43680   0.36270   0.01267  Uiso   1.00
H925   H     0.51490   0.41590   0.38740   0.01267  Uiso   1.00
H926   H     0.61220   0.57470   0.41310   0.01267  Uiso   1.00
H927   H     0.64760   0.63390   0.40330   0.01267  Uiso   1.00
H928   H     0.51660   0.66700   0.35000   0.01267  Uiso   1.00
H929   H     0.47580   0.60400   0.35210   0.01267  Uiso   1.00
H930   H     0.51300   0.53520   0.27600   0.01267  Uiso   1.00
H931   H     0.47360   0.53810   0.21480   0.01267  Uiso   1.00
H932   H     0.35470   0.46780   0.24050   0.01267  Uiso   1.00
H933   H     0.40210   0.44840   0.29190   0.01267  Uiso   1.00
H934   H     0.37120   0.39320   0.43850   0.01267  Uiso   1.00
H935   H     0.30630   0.38770   0.48730   0.01267  Uiso   1.00
H936   H     0.35140   0.49440   0.54510   0.01267  Uiso   1.00
H937   H     0.41240   0.50010   0.49450   0.01267  Uiso   1.00
H938   H     0.64010   0.43020   0.47590   0.01267  Uiso   1.00
H939   H     0.69890   0.37780   0.48180   0.01267  Uiso   1.00
H940   H     0.65560   0.32640   0.37200   0.01267  Uiso   1.00
H941   H     0.59020   0.37450   0.36750   0.01267  Uiso   1.00
H942   H     0.32940   0.87730   0.65630   0.01267  Uiso   1.00
H943   H     0.34200   0.91770   0.68450   0.01267  Uiso   1.00
H944   H     0.24860   0.89080   0.69460   0.01267  Uiso   1.00
H945   H     0.23420   0.89910   0.65150   0.01267  Uiso   1.00
H946   H     0.19390   0.94000   0.70110   0.01267  Uiso   1.00
H947   H     0.25120   0.95870   0.71310   0.01267  Uiso   1.00
H948   H     0.16210   0.00670   0.67880   0.01267  Uiso   1.00
H949   H     0.21780   0.02180   0.69810   0.01267  Uiso   1.00
H950   H     0.18420   0.03100   0.61960   0.01267  Uiso   1.00
H951   H     0.19260   0.06630   0.65500   0.01267  Uiso   1.00
H952   H     0.25980   0.08950   0.60260   0.01267  Uiso   1.00
H953   H     0.25380   0.04840   0.57460   0.01267  Uiso   1.00
H954   H     0.33470   0.08220   0.56790   0.01267  Uiso   1.00
H955   H     0.34970   0.07460   0.61120   0.01267  Uiso   1.00
H956   H     0.39590   0.02960   0.56080   0.01267  Uiso   1.00
H957   H     0.33960   0.01060   0.54690   0.01267  Uiso   1.00
H958   H     0.37090   0.94390   0.56190   0.01267  Uiso   1.00
H959   H     0.42680   0.95850   0.58120   0.01267  Uiso   1.00
H960   H     0.40310   0.93290   0.64310   0.01267  Uiso   1.00
H961   H     0.39280   0.89730   0.60810   0.01267  Uiso   1.00
H962   H     0.73520   0.67070   0.43130   0.01267  Uiso   1.00
H963   H     0.78920   0.68070   0.45490   0.01267  Uiso   1.00
H964   H     0.74600   0.72960   0.49730   0.01267  Uiso   1.00
H965   H     0.72090   0.68730   0.49900   0.01267  Uiso   1.00
H966   H     0.65350   0.73100   0.50640   0.01267  Uiso   1.00
H967   H     0.64610   0.70610   0.46380   0.01267  Uiso   1.00
H968   H     0.60420   0.79910   0.47570   0.01267  Uiso   1.00
H969   H     0.59220   0.76510   0.44030   0.01267  Uiso   1.00
H970   H     0.65260   0.83570   0.43110   0.01267  Uiso   1.00
H971   H     0.59240   0.82770   0.41590   0.01267  Uiso   1.00
H972   H     0.68190   0.84400   0.36920   0.01267  Uiso   1.00
H973   H     0.62750   0.83240   0.34570   0.01267  Uiso   1.00
H974   H     0.69970   0.81640   0.30460   0.01267  Uiso   1.00
H975   H     0.66630   0.77850   0.31040   0.01267  Uiso   1.00
H976   H     0.76990   0.79440   0.33830   0.01267  Uiso   1.00
H977   H     0.75380   0.76460   0.30030   0.01267  Uiso   1.00
H978   H     0.82550   0.74430   0.35760   0.01267  Uiso   1.00
H979   H     0.80520   0.70910   0.32490   0.01267  Uiso   1.00
H980   H     0.81970   0.68530   0.38520   0.01267  Uiso   1.00
H981   H     0.75880   0.68070   0.37200   0.01267  Uiso   1.00
H982   H     0.90830   0.24250   0.40040   0.01267  Uiso   1.00
H983   H     0.92360   0.28780   0.41200   0.01267  Uiso   1.00
H984   H     0.86190   0.28930   0.46730   0.01267  Uiso   1.00
H985   H     0.91500   0.26420   0.47070   0.01267  Uiso   1.00
H986   H     0.86590   0.20680   0.44860   0.01267  Uiso   1.00
H987   H     0.84730   0.22870   0.49050   0.01267  Uiso   1.00
H988   H     0.74160   0.20010   0.47790   0.01267  Uiso   1.00
H989   H     0.77640   0.17300   0.44590   0.01267  Uiso   1.00
H990   H     0.68120   0.21600   0.43080   0.01267  Uiso   1.00
H991   H     0.69030   0.16960   0.42000   0.01267  Uiso   1.00
H992   H     0.65170   0.22520   0.36640   0.01267  Uiso   1.00
H993   H     0.65650   0.17880   0.35140   0.01267  Uiso   1.00
H994   H     0.66730   0.21660   0.29940   0.01267  Uiso   1.00
H995   H     0.71620   0.18850   0.30390   0.01267  Uiso   1.00
H996   H     0.71850   0.27080   0.31800   0.01267  Uiso   1.00
H997   H     0.74210   0.24390   0.28050   0.01267  Uiso   1.00
H998   H     0.79910   0.30890   0.33150   0.01267  Uiso   1.00
H999   H     0.83020   0.28510   0.29460   0.01267  Uiso   1.00
H1000  H     0.89180   0.30230   0.34670   0.01267  Uiso   1.00
H1001  H     0.88590   0.25540   0.33840   0.01267  Uiso   1.00
H1002  H     0.40920   0.43320   0.06630   0.01267  Uiso   1.00
H1003  H     0.41400   0.45650   0.10950   0.01267  Uiso   1.00
H1004  H     0.39040   0.38100   0.09530   0.01267  Uiso   1.00
H1005  H     0.33540   0.37340   0.14380   0.01267  Uiso   1.00
H1006  H     0.35700   0.41460   0.16520   0.01267  Uiso   1.00
H1007  H     0.27790   0.42090   0.19680   0.01267  Uiso   1.00
H1008  H     0.23980   0.38940   0.17240   0.01267  Uiso   1.00
H1009  H     0.17830   0.43310   0.16460   0.01267  Uiso   1.00
H1010  H     0.19950   0.44770   0.20810   0.01267  Uiso   1.00
H1011  H     0.15790   0.50630   0.14570   0.01267  Uiso   1.00
H1012  H     0.16770   0.52200   0.19100   0.01267  Uiso   1.00
H1013  H     0.23250   0.56370   0.17570   0.01267  Uiso   1.00
H1014  H     0.17780   0.57210   0.15530   0.01267  Uiso   1.00
H1015  H     0.21130   0.54680   0.09670   0.01267  Uiso   1.00
H1016  H     0.24190   0.58480   0.11750   0.01267  Uiso   1.00
H1017  H     0.32820   0.56050   0.06650   0.01267  Uiso   1.00
H1018  H     0.28660   0.52680   0.04900   0.01267  Uiso   1.00
H1019  H     0.36780   0.49960   0.04170   0.01267  Uiso   1.00
H1020  H     0.38500   0.51740   0.08500   0.01267  Uiso   1.00
C637   C     0.49530   0.97560   0.90310   0.01267  Uiso   1.00
C638   C     0.46120   0.98030   0.94130   0.01267  Uiso   1.00
C639   C     0.46130   0.97250   0.86530   0.01267  Uiso   1.00
C640   C     0.52890   0.01490   0.90700   0.01267  Uiso   1.00
C641   C     0.53200   0.93930   0.89960   0.01267  Uiso   1.00
C642   C     0.38860   0.94420   0.96970   0.01267  Uiso   1.00
C643   C     0.35850   0.90950   0.96920   0.01267  Uiso   1.00
C644   C     0.32010   0.90590   0.99690   0.01267  Uiso   1.00
C645   C     0.30830   0.93840   0.02470   0.01267  Uiso   1.00
C646   C     0.33720   0.97230   0.02540   0.01267  Uiso   1.00
C647   C     0.37800   0.97650   0.99810   0.01267  Uiso   1.00
C648   C     0.25910   0.93810   0.05570   0.01267  Uiso   1.00
C649   C     0.41230   0.01150   0.82220   0.01267  Uiso   1.00
C650   C     0.39370   0.98080   0.79730   0.01267  Uiso   1.00
C651   C     0.37330   0.98650   0.76280   0.01267  Uiso   1.00
C652   C     0.37440   0.02250   0.74860   0.01267  Uiso   1.00
C653   C     0.39640   0.05680   0.77510   0.01267  Uiso   1.00
C654   C     0.41590   0.05060   0.81140   0.01267  Uiso   1.00
C655   C     0.34870   0.02780   0.70790   0.01267  Uiso   1.00
C656   C     0.57500   0.05360   0.86610   0.01267  Uiso   1.00
C657   C     0.57550   0.06260   0.82700   0.01267  Uiso   1.00
C658   C     0.59560   0.09600   0.82160   0.01267  Uiso   1.00
C659   C     0.61990   0.12630   0.85000   0.01267  Uiso   1.00
C660   C     0.62270   0.11400   0.88830   0.01267  Uiso   1.00
C661   C     0.59980   0.07860   0.89590   0.01267  Uiso   1.00
C662   C     0.64800   0.16570   0.84550   0.01267  Uiso   1.00
C663   C     0.60180   0.91050   0.93750   0.01267  Uiso   1.00
C664   C     0.62950   0.91040   0.97270   0.01267  Uiso   1.00
C665   C     0.67060   0.88550   0.97670   0.01267  Uiso   1.00
C666   C     0.68550   0.85770   0.94330   0.01267  Uiso   1.00
C667   C     0.65490   0.85620   0.90960   0.01267  Uiso   1.00
C668   C     0.61410   0.88350   0.90540   0.01267  Uiso   1.00
C669   C     0.72980   0.82840   0.94790   0.01267  Uiso   1.00
C670   C     0.99400   0.47660   0.89320   0.01267  Uiso   1.00
C671   C     0.95680   0.51400   0.89480   0.01267  Uiso   1.00
C672   C     0.03500   0.47430   0.85760   0.01267  Uiso   1.00
C673   C     0.02970   0.48090   0.93090   0.01267  Uiso   1.00
C674   C     0.96140   0.43910   0.88780   0.01267  Uiso   1.00
C675   C     0.95790   0.58310   0.88550   0.01267  Uiso   1.00
C676   C     0.90760   0.59230   0.89970   0.01267  Uiso   1.00
C677   C     0.88730   0.62790   0.89360   0.01267  Uiso   1.00
C678   C     0.91160   0.65540   0.87530   0.01267  Uiso   1.00
C679   C     0.96460   0.64720   0.86120   0.01267  Uiso   1.00
C680   C     0.99030   0.61060   0.86340   0.01267  Uiso   1.00
C681   C     0.88310   0.69520   0.87460   0.01267  Uiso   1.00
C682   C     0.03780   0.48690   0.79020   0.01267  Uiso   1.00
C683   C     0.01630   0.51890   0.76700   0.01267  Uiso   1.00
C684   C     0.04200   0.52240   0.73260   0.01267  Uiso   1.00
C685   C     0.09170   0.50340   0.72240   0.01267  Uiso   1.00
C686   C     0.11100   0.47880   0.74610   0.01267  Uiso   1.00
C687   C     0.08410   0.46850   0.77820   0.01267  Uiso   1.00
C688   C     0.12330   0.50810   0.68270   0.01267  Uiso   1.00
C689   C     0.10180   0.44790   0.96200   0.01267  Uiso   1.00
C690   C     0.13330   0.41380   0.95960   0.01267  Uiso   1.00
C691   C     0.17190   0.41050   0.98910   0.01267  Uiso   1.00
C692   C     0.17840   0.44010   0.02050   0.01267  Uiso   1.00
C693   C     0.14560   0.47420   0.02350   0.01267  Uiso   1.00
C694   C     0.10880   0.47700   0.99330   0.01267  Uiso   1.00
C695   C     0.21930   0.43850   0.05470   0.01267  Uiso   1.00
C696   C     0.89090   0.40870   0.92030   0.01267  Uiso   1.00
C697   C     0.85730   0.40900   0.95520   0.01267  Uiso   1.00
C698   C     0.82120   0.37810   0.95840   0.01267  Uiso   1.00
C699   C     0.81480   0.34710   0.92640   0.01267  Uiso   1.00
C700   C     0.84820   0.34710   0.89310   0.01267  Uiso   1.00
C701   C     0.88690   0.37640   0.88960   0.01267  Uiso   1.00
C702   C     0.77580   0.31360   0.92920   0.01267  Uiso   1.00
C703   C     0.18090   0.90530   0.16280   0.01267  Uiso   1.00
C704   C     0.24530   0.90940   0.17530   0.01267  Uiso   1.00
C705   C     0.27020   0.94530   0.19100   0.01267  Uiso   1.00
C706   C     0.29970   0.01060   0.17320   0.01267  Uiso   1.00
C707   C     0.29470   0.03990   0.14350   0.01267  Uiso   1.00
C708   C     0.22610   0.06240   0.09700   0.01267  Uiso   1.00
C709   C     0.16960   0.06340   0.08720   0.01267  Uiso   1.00
C710   C     0.14030   0.02360   0.06980   0.01267  Uiso   1.00
C711   C     0.11150   0.95500   0.08670   0.01267  Uiso   1.00
C712   C     0.11800   0.92430   0.11920   0.01267  Uiso   1.00
C713   C     0.74400   0.69230   0.94600   0.01267  Uiso   1.00
C714   C     0.77610   0.70870   0.98250   0.01267  Uiso   1.00
C715   C     0.83090   0.72550   0.97980   0.01267  Uiso   1.00
C716   C     0.88100   0.78480   0.95110   0.01267  Uiso   1.00
C717   C     0.87330   0.81500   0.92090   0.01267  Uiso   1.00
C718   C     0.83970   0.82180   0.85630   0.01267  Uiso   1.00
C719   C     0.80810   0.79790   0.82370   0.01267  Uiso   1.00
C720   C     0.75790   0.77560   0.82710   0.01267  Uiso   1.00
C721   C     0.70350   0.72510   0.85030   0.01267  Uiso   1.00
C722   C     0.71340   0.70020   0.88160   0.01267  Uiso   1.00
C723   C     0.60560   0.26830   0.91260   0.01267  Uiso   1.00
C724   C     0.61890   0.26520   0.95600   0.01267  Uiso   1.00
C725   C     0.65120   0.23090   0.96210   0.01267  Uiso   1.00
C726   C     0.74430   0.19780   0.95080   0.01267  Uiso   1.00
C727   C     0.79220   0.19560   0.92110   0.01267  Uiso   1.00
C728   C     0.82370   0.20400   0.85520   0.01267  Uiso   1.00
C729   C     0.80120   0.21310   0.81590   0.01267  Uiso   1.00
C730   C     0.76370   0.24530   0.80910   0.01267  Uiso   1.00
C731   C     0.68080   0.28460   0.82220   0.01267  Uiso   1.00
C732   C     0.63300   0.28020   0.84810   0.01267  Uiso   1.00
C733   C     0.11060   0.44090   0.59100   0.01267  Uiso   1.00
C734   C     0.12490   0.40480   0.60760   0.01267  Uiso   1.00
C735   C     0.16030   0.40160   0.64100   0.01267  Uiso   1.00
C736   C     0.24590   0.41640   0.67370   0.01267  Uiso   1.00
C737   C     0.29050   0.44410   0.67990   0.01267  Uiso   1.00
C738   C     0.31450   0.51610   0.66520   0.01267  Uiso   1.00
C739   C     0.29210   0.55340   0.65420   0.01267  Uiso   1.00
C740   C     0.26470   0.55650   0.61880   0.01267  Uiso   1.00
C741   C     0.18680   0.53450   0.56990   0.01267  Uiso   1.00
C742   C     0.14500   0.50500   0.56920   0.01267  Uiso   1.00
C743   C     0.00470   0.97560   0.40310   0.01267  Uiso   1.00
C744   C     0.03880   0.98030   0.44130   0.01267  Uiso   1.00
C745   C     0.03870   0.97250   0.36530   0.01267  Uiso   1.00
C746   C     0.97110   0.01490   0.40700   0.01267  Uiso   1.00
C747   C     0.96800   0.93930   0.39960   0.01267  Uiso   1.00
C748   C     0.11140   0.94420   0.46970   0.01267  Uiso   1.00
C749   C     0.14150   0.90950   0.46920   0.01267  Uiso   1.00
C750   C     0.17990   0.90590   0.49690   0.01267  Uiso   1.00
C751   C     0.19170   0.93840   0.52470   0.01267  Uiso   1.00
C752   C     0.16280   0.97230   0.52540   0.01267  Uiso   1.00
C753   C     0.12200   0.97650   0.49810   0.01267  Uiso   1.00
C754   C     0.24090   0.93810   0.55570   0.01267  Uiso   1.00
C755   C     0.08770   0.01150   0.32220   0.01267  Uiso   1.00
C756   C     0.10630   0.98080   0.29730   0.01267  Uiso   1.00
C757   C     0.12670   0.98650   0.26280   0.01267  Uiso   1.00
C758   C     0.12560   0.02250   0.24860   0.01267  Uiso   1.00
C759   C     0.10360   0.05680   0.27510   0.01267  Uiso   1.00
C760   C     0.08410   0.05060   0.31140   0.01267  Uiso   1.00
C761   C     0.15130   0.02780   0.20790   0.01267  Uiso   1.00
C762   C     0.92500   0.05360   0.36610   0.01267  Uiso   1.00
C763   C     0.92450   0.06260   0.32700   0.01267  Uiso   1.00
C764   C     0.90440   0.09600   0.32160   0.01267  Uiso   1.00
C765   C     0.88010   0.12630   0.35000   0.01267  Uiso   1.00
C766   C     0.87730   0.11400   0.38830   0.01267  Uiso   1.00
C767   C     0.90020   0.07860   0.39590   0.01267  Uiso   1.00
C768   C     0.85200   0.16570   0.34550   0.01267  Uiso   1.00
C769   C     0.89820   0.91050   0.43750   0.01267  Uiso   1.00
C770   C     0.87050   0.91040   0.47270   0.01267  Uiso   1.00
C771   C     0.82940   0.88550   0.47670   0.01267  Uiso   1.00
C772   C     0.81450   0.85770   0.44330   0.01267  Uiso   1.00
C773   C     0.84510   0.85620   0.40960   0.01267  Uiso   1.00
C774   C     0.88590   0.88350   0.40540   0.01267  Uiso   1.00
C775   C     0.77020   0.82840   0.44790   0.01267  Uiso   1.00
C776   C     0.50600   0.47660   0.39320   0.01267  Uiso   1.00
C777   C     0.54320   0.51400   0.39480   0.01267  Uiso   1.00
C778   C     0.46500   0.47430   0.35760   0.01267  Uiso   1.00
C779   C     0.47030   0.48090   0.43090   0.01267  Uiso   1.00
C780   C     0.53860   0.43910   0.38780   0.01267  Uiso   1.00
C781   C     0.54210   0.58310   0.38550   0.01267  Uiso   1.00
C782   C     0.59240   0.59230   0.39970   0.01267  Uiso   1.00
C783   C     0.61270   0.62790   0.39360   0.01267  Uiso   1.00
C784   C     0.58840   0.65540   0.37530   0.01267  Uiso   1.00
C785   C     0.53540   0.64720   0.36120   0.01267  Uiso   1.00
C786   C     0.50970   0.61060   0.36340   0.01267  Uiso   1.00
C787   C     0.61690   0.69520   0.37460   0.01267  Uiso   1.00
C788   C     0.46220   0.48690   0.29020   0.01267  Uiso   1.00
C789   C     0.48370   0.51890   0.26700   0.01267  Uiso   1.00
C790   C     0.45800   0.52240   0.23260   0.01267  Uiso   1.00
C791   C     0.40830   0.50340   0.22240   0.01267  Uiso   1.00
C792   C     0.38900   0.47880   0.24610   0.01267  Uiso   1.00
C793   C     0.41590   0.46850   0.27820   0.01267  Uiso   1.00
C794   C     0.37670   0.50810   0.18270   0.01267  Uiso   1.00
C795   C     0.39820   0.44790   0.46200   0.01267  Uiso   1.00
C796   C     0.36670   0.41380   0.45960   0.01267  Uiso   1.00
C797   C     0.32810   0.41050   0.48910   0.01267  Uiso   1.00
C798   C     0.32160   0.44010   0.52050   0.01267  Uiso   1.00
C799   C     0.35440   0.47420   0.52350   0.01267  Uiso   1.00
C800   C     0.39120   0.47700   0.49330   0.01267  Uiso   1.00
C801   C     0.28070   0.43850   0.55470   0.01267  Uiso   1.00
C802   C     0.60910   0.40870   0.42030   0.01267  Uiso   1.00
C803   C     0.64270   0.40900   0.45520   0.01267  Uiso   1.00
C804   C     0.67880   0.37810   0.45840   0.01267  Uiso   1.00
C805   C     0.68520   0.34710   0.42640   0.01267  Uiso   1.00
C806   C     0.65180   0.34710   0.39310   0.01267  Uiso   1.00
C807   C     0.61310   0.37640   0.38960   0.01267  Uiso   1.00
C808   C     0.72420   0.31360   0.42920   0.01267  Uiso   1.00
C809   C     0.31910   0.90530   0.66280   0.01267  Uiso   1.00
C810   C     0.25470   0.90940   0.67530   0.01267  Uiso   1.00
C811   C     0.22980   0.94530   0.69100   0.01267  Uiso   1.00
C812   C     0.20030   0.01060   0.67320   0.01267  Uiso   1.00
C813   C     0.20530   0.03990   0.64350   0.01267  Uiso   1.00
C814   C     0.27390   0.06240   0.59700   0.01267  Uiso   1.00
C815   C     0.33040   0.06340   0.58720   0.01267  Uiso   1.00
C816   C     0.35970   0.02360   0.56980   0.01267  Uiso   1.00
C817   C     0.38850   0.95500   0.58670   0.01267  Uiso   1.00
C818   C     0.38200   0.92430   0.61920   0.01267  Uiso   1.00
C819   C     0.75600   0.69230   0.44600   0.01267  Uiso   1.00
C820   C     0.72390   0.70870   0.48250   0.01267  Uiso   1.00
C821   C     0.66910   0.72550   0.47980   0.01267  Uiso   1.00
C822   C     0.61900   0.78480   0.45110   0.01267  Uiso   1.00
C823   C     0.62670   0.81500   0.42090   0.01267  Uiso   1.00
C824   C     0.66030   0.82180   0.35630   0.01267  Uiso   1.00
C825   C     0.69190   0.79790   0.32370   0.01267  Uiso   1.00
C826   C     0.74210   0.77560   0.32710   0.01267  Uiso   1.00
C827   C     0.79650   0.72510   0.35030   0.01267  Uiso   1.00
C828   C     0.78660   0.70020   0.38160   0.01267  Uiso   1.00
C829   C     0.89440   0.26830   0.41260   0.01267  Uiso   1.00
C830   C     0.88110   0.26520   0.45600   0.01267  Uiso   1.00
C831   C     0.84880   0.23090   0.46210   0.01267  Uiso   1.00
C832   C     0.75570   0.19780   0.45080   0.01267  Uiso   1.00
C833   C     0.70780   0.19560   0.42110   0.01267  Uiso   1.00
C834   C     0.67630   0.20400   0.35520   0.01267  Uiso   1.00
C835   C     0.69880   0.21310   0.31590   0.01267  Uiso   1.00
C836   C     0.73630   0.24530   0.30910   0.01267  Uiso   1.00
C837   C     0.81920   0.28460   0.32220   0.01267  Uiso   1.00
C838   C     0.86700   0.28020   0.34810   0.01267  Uiso   1.00
C839   C     0.38940   0.44090   0.09100   0.01267  Uiso   1.00
C840   C     0.37510   0.40480   0.10760   0.01267  Uiso   1.00
C841   C     0.33970   0.40160   0.14100   0.01267  Uiso   1.00
C842   C     0.25410   0.41640   0.17370   0.01267  Uiso   1.00
C843   C     0.20950   0.44410   0.17990   0.01267  Uiso   1.00
C844   C     0.18550   0.51610   0.16520   0.01267  Uiso   1.00
C845   C     0.20790   0.55340   0.15420   0.01267  Uiso   1.00
C846   C     0.23530   0.55650   0.11880   0.01267  Uiso   1.00
C847   C     0.31320   0.53450   0.06990   0.01267  Uiso   1.00
C848   C     0.35500   0.50500   0.06920   0.01267  Uiso   1.00
N97    N     0.17550   0.92660   0.12730   0.01267  Uiso   1.00
N98    N     0.27490   0.97190   0.15860   0.01267  Uiso   1.00
N99    N     0.23290   0.04110   0.13320   0.01267  Uiso   1.00
N100   N     0.13630   0.99540   0.10150   0.01267  Uiso   1.00
N101   N     0.72980   0.71930   0.91940   0.01267  Uiso   1.00
N102   N     0.82910   0.76240   0.96170   0.01267  Uiso   1.00
N103   N     0.85390   0.79280   0.88610   0.01267  Uiso   1.00
N104   N     0.76040   0.74650   0.84880   0.01267  Uiso   1.00
N105   N     0.64840   0.27940   0.88850   0.01267  Uiso   1.00
N106   N     0.70590   0.23370   0.94710   0.01267  Uiso   1.00
N107   N     0.77590   0.20140   0.88260   0.01267  Uiso   1.00
N108   N     0.71560   0.24580   0.82670   0.01267  Uiso   1.00
N109   N     0.15510   0.46640   0.58280   0.01267  Uiso   1.00
N110   N     0.21350   0.41890   0.63780   0.01267  Uiso   1.00
N111   N     0.27600   0.48490   0.66740   0.01267  Uiso   1.00
N112   N     0.21280   0.53520   0.61250   0.01267  Uiso   1.00
N113   N     0.32450   0.92660   0.62730   0.01267  Uiso   1.00
N114   N     0.22510   0.97190   0.65860   0.01267  Uiso   1.00
N115   N     0.26710   0.04110   0.63320   0.01267  Uiso   1.00
N116   N     0.36370   0.99540   0.60150   0.01267  Uiso   1.00
N117   N     0.77020   0.71930   0.41940   0.01267  Uiso   1.00
N118   N     0.67090   0.76240   0.46170   0.01267  Uiso   1.00
N119   N     0.64610   0.79280   0.38610   0.01267  Uiso   1.00
N120   N     0.73960   0.74650   0.34880   0.01267  Uiso   1.00
N121   N     0.85160   0.27940   0.38850   0.01267  Uiso   1.00
N122   N     0.79410   0.23370   0.44710   0.01267  Uiso   1.00
N123   N     0.72410   0.20140   0.38260   0.01267  Uiso   1.00
N124   N     0.78440   0.24580   0.32670   0.01267  Uiso   1.00
N125   N     0.34490   0.46640   0.08280   0.01267  Uiso   1.00
N126   N     0.28650   0.41890   0.13780   0.01267  Uiso   1.00
N127   N     0.22400   0.48490   0.16740   0.01267  Uiso   1.00
N128   N     0.28720   0.53520   0.11250   0.01267  Uiso   1.00
O145   O     0.42890   0.94327   0.94084   0.01267  Uiso   1.00
O146   O     0.43670   0.00928   0.86120   0.01267  Uiso   1.00
O147   O     0.55480   0.01750   0.86950   0.01267  Uiso   1.00
O148   O     0.56130   0.93950   0.93700   0.01267  Uiso   1.00
O149   O     0.25020   0.96950   0.07940   0.01267  Uiso   1.00
O150   O     0.23710   0.90430   0.05470   0.01267  Uiso   1.00
O151   O     0.34110   0.06420   0.70010   0.01267  Uiso   1.00
O152   O     0.33610   0.99770   0.68610   0.01267  Uiso   1.00
O153   O     0.66350   0.18770   0.87490   0.01267  Uiso   1.00
O154   O     0.65060   0.17420   0.81050   0.01267  Uiso   1.00
O155   O     0.75490   0.82990   0.98170   0.01267  Uiso   1.00
O156   O     0.73940   0.80310   0.91820   0.01267  Uiso   1.00
O157   O     0.98890   0.54840   0.88970   0.01267  Uiso   1.00
O158   O     0.06610   0.44847   0.93038   0.01267  Uiso   1.00
O159   O     0.92370   0.44060   0.92085   0.01267  Uiso   1.00
O160   O     0.00500   0.48230   0.82420   0.01267  Uiso   1.00
O161   O     0.84030   0.70390   0.88850   0.01267  Uiso   1.00
O162   O     0.91240   0.71810   0.85210   0.01267  Uiso   1.00
O163   O     0.09760   0.53530   0.66210   0.01267  Uiso   1.00
O164   O     0.16460   0.49130   0.67580   0.01267  Uiso   1.00
O165   O     0.24870   0.40510   0.05030   0.01267  Uiso   1.00
O166   O     0.22420   0.46610   0.08130   0.01267  Uiso   1.00
O167   O     0.77050   0.28770   0.89820   0.01267  Uiso   1.00
O168   O     0.74750   0.31430   0.96010   0.01267  Uiso   1.00
O169   O     0.07110   0.94327   0.44084   0.01267  Uiso   1.00
O170   O     0.06330   0.00928   0.36120   0.01267  Uiso   1.00
O171   O     0.94520   0.01750   0.36950   0.01267  Uiso   1.00
O172   O     0.93870   0.93950   0.43700   0.01267  Uiso   1.00
O173   O     0.24980   0.96950   0.57940   0.01267  Uiso   1.00
O174   O     0.26290   0.90430   0.55470   0.01267  Uiso   1.00
O175   O     0.15890   0.06420   0.20010   0.01267  Uiso   1.00
O176   O     0.16390   0.99770   0.18610   0.01267  Uiso   1.00
O177   O     0.83650   0.18770   0.37490   0.01267  Uiso   1.00
O178   O     0.84940   0.17420   0.31050   0.01267  Uiso   1.00
O179   O     0.74510   0.82990   0.48170   0.01267  Uiso   1.00
O180   O     0.76060   0.80310   0.41820   0.01267  Uiso   1.00
O181   O     0.51110   0.54840   0.38970   0.01267  Uiso   1.00
O182   O     0.43390   0.44847   0.43038   0.01267  Uiso   1.00
O183   O     0.57630   0.44060   0.42085   0.01267  Uiso   1.00
O184   O     0.49500   0.48230   0.32420   0.01267  Uiso   1.00
O185   O     0.65970   0.70390   0.38850   0.01267  Uiso   1.00
O186   O     0.58760   0.71810   0.35210   0.01267  Uiso   1.00
O187   O     0.40240   0.53530   0.16210   0.01267  Uiso   1.00
O188   O     0.33540   0.49130   0.17580   0.01267  Uiso   1.00
O189   O     0.25130   0.40510   0.55030   0.01267  Uiso   1.00
O190   O     0.27580   0.46610   0.58130   0.01267  Uiso   1.00
O191   O     0.72950   0.28770   0.39820   0.01267  Uiso   1.00
O192   O     0.75250   0.31430   0.46010   0.01267  Uiso   1.00
