data_FURSAN_ion_b
_audit_creation_date              2014-07-02
_audit_creation_method            'Materials Studio'
_symmetry_space_group_name_H-M    'P1'
_symmetry_Int_Tables_number       1
_symmetry_cell_setting            triclinic
loop_
_symmetry_equiv_pos_as_xyz
  x,y,z
_cell_length_a                    34.7690
_cell_length_b                    34.7690
_cell_length_c                    8.3167
_cell_angle_alpha                 90.0000
_cell_angle_beta                  90.0000
_cell_angle_gamma                 120.0000
loop_
_atom_site_label
_atom_site_type_symbol
_atom_site_fract_x
_atom_site_fract_y
_atom_site_fract_z
_atom_site_U_iso_or_equiv
_atom_site_adp_type
_atom_site_occupancy
Ag1    Ag    0.32217   0.14060   0.49748   0.00000  Uiso   1.00
O2     O     0.01034   0.66800   0.64723   0.00000  Uiso   1.00
N3     N     0.34252   0.20044   0.35110   0.00000  Uiso   1.00
N4     N     0.20856   0.28283   0.39500   0.00000  Uiso   1.00
C5     C     0.32296   0.22544   0.36160   0.00000  Uiso   1.00
H6     H     0.29750   0.21550   0.42810   0.00000  Uiso   1.00
C7     C     0.33870   0.26522   0.27840   0.00000  Uiso   1.00
C8     C     0.04207   0.61255   0.51083   0.00000  Uiso   1.00
H9     H     0.05387   0.63983   0.45403   0.00000  Uiso   1.00
C10    C     0.06094   0.58606   0.49503   0.00000  Uiso   1.00
H11    H     0.75173   0.92747   0.75667   0.00000  Uiso   1.00
C12    C     0.37750   0.21404   0.25200   0.00000  Uiso   1.00
H13    H     0.39130   0.19650   0.24340   0.00000  Uiso   1.00
C14    C     0.31926   0.29474   0.30190   0.00000  Uiso   1.00
C15    C     0.25216   0.29709   0.39120   0.00000  Uiso   1.00
H16    H     0.27180   0.32360   0.44700   0.00000  Uiso   1.00
C17    C     0.26992   0.27460   0.30870   0.00000  Uiso   1.00
C18    C     0.90788   0.56915   0.55903   0.00000  Uiso   1.00
H19    H     0.91897   0.55313   0.50113   0.00000  Uiso   1.00
C20    C     0.19630   0.22130   0.23010   0.00000  Uiso   1.00
H21    H     0.84257   0.52833   0.50783   0.00000  Uiso   1.00
C22    C     0.18110   0.24512   0.31550   0.00000  Uiso   1.00
H23    H     0.15010   0.23450   0.31830   0.00000  Uiso   1.00
C24    C     0.41334   0.15576   0.54610   0.00000  Uiso   1.00
O25    O     0.72897   0.83097   0.32567   0.00000  Uiso   1.00
O26    O     0.39827   0.14080   0.41230   0.00000  Uiso   1.00
C27    C     0.79205   0.82647   0.26037   0.00000  Uiso   1.00
F28    F     0.78733   0.79695   0.38127   0.00000  Uiso   1.00
F29    F     0.47792   0.15322   0.46110   0.00000  Uiso   1.00
C30    C     0.82563   0.87087   0.33017   0.00000  Uiso   1.00
F31    F     0.82435   0.90090   0.22277   0.00000  Uiso   1.00
F32    F     0.81236   0.87524   0.47777   0.00000  Uiso   1.00
C33    C     0.87313   0.87897   0.34777   0.00000  Uiso   1.00
F34    F     0.89183   0.88457   0.20617   0.00000  Uiso   1.00
F35    F     0.87548   0.84667   0.41467   0.00000  Uiso   1.00
F36    F     0.89773   0.91567   0.42427   0.00000  Uiso   1.00
Ag37   Ag    0.98884   0.47393   0.83081   0.00000  Uiso   1.00
O38    O     0.67700   0.00134   0.98057   0.00000  Uiso   1.00
N39    N     0.00919   0.53377   0.68443   0.00000  Uiso   1.00
N40    N     0.87523   0.61616   0.72833   0.00000  Uiso   1.00
C41    C     0.98963   0.55877   0.69493   0.00000  Uiso   1.00
H42    H     0.96417   0.54883   0.76143   0.00000  Uiso   1.00
C43    C     0.00537   0.59855   0.61173   0.00000  Uiso   1.00
C44    C     0.70873   0.94589   0.84417   0.00000  Uiso   1.00
H45    H     0.72053   0.97317   0.78737   0.00000  Uiso   1.00
C46    C     0.72760   0.91940   0.82837   0.00000  Uiso   1.00
H47    H     0.41840   0.26080   0.09000   0.00000  Uiso   1.00
C48    C     0.04417   0.54737   0.58533   0.00000  Uiso   1.00
H49    H     0.05797   0.52983   0.57673   0.00000  Uiso   1.00
C50    C     0.98593   0.62807   0.63523   0.00000  Uiso   1.00
C51    C     0.91883   0.63042   0.72453   0.00000  Uiso   1.00
H52    H     0.93847   0.65693   0.78033   0.00000  Uiso   1.00
C53    C     0.93659   0.60793   0.64203   0.00000  Uiso   1.00
C54    C     0.57454   0.90249   0.89237   0.00000  Uiso   1.00
H55    H     0.58563   0.88647   0.83447   0.00000  Uiso   1.00
C56    C     0.86297   0.55463   0.56343   0.00000  Uiso   1.00
H57    H     0.50923   0.86167   0.84117   0.00000  Uiso   1.00
C58    C     0.84777   0.57845   0.64883   0.00000  Uiso   1.00
H59    H     0.81677   0.56783   0.65163   0.00000  Uiso   1.00
C60    C     0.08001   0.48909   0.87943   0.00000  Uiso   1.00
O61    O     0.39564   0.16430   0.65900   0.00000  Uiso   1.00
O62    O     0.06494   0.47413   0.74563   0.00000  Uiso   1.00
C63    C     0.45872   0.15980   0.59370   0.00000  Uiso   1.00
F64    F     0.45400   0.13028   0.71460   0.00000  Uiso   1.00
F65    F     0.14459   0.48655   0.79443   0.00000  Uiso   1.00
C66    C     0.49230   0.20420   0.66350   0.00000  Uiso   1.00
F67    F     0.49102   0.23423   0.55610   0.00000  Uiso   1.00
F68    F     0.47903   0.20857   0.81110   0.00000  Uiso   1.00
C69    C     0.53980   0.21230   0.68110   0.00000  Uiso   1.00
F70    F     0.55850   0.21790   0.53950   0.00000  Uiso   1.00
F71    F     0.54215   0.18000   0.74800   0.00000  Uiso   1.00
F72    F     0.56440   0.24900   0.75760   0.00000  Uiso   1.00
Ag73   Ag    0.65550   0.80727   0.16415   0.00000  Uiso   1.00
O74    O     0.34367   0.33467   0.31390   0.00000  Uiso   1.00
N75    N     0.67585   0.86711   0.01777   0.00000  Uiso   1.00
N76    N     0.54189   0.94950   0.06167   0.00000  Uiso   1.00
C77    C     0.65629   0.89211   0.02827   0.00000  Uiso   1.00
H78    H     0.63083   0.88217   0.09477   0.00000  Uiso   1.00
C79    C     0.67203   0.93189   0.94507   0.00000  Uiso   1.00
C80    C     0.37540   0.27922   0.17750   0.00000  Uiso   1.00
H81    H     0.38720   0.30650   0.12070   0.00000  Uiso   1.00
C82    C     0.39427   0.25273   0.16170   0.00000  Uiso   1.00
H83    H     0.08507   0.59413   0.42333   0.00000  Uiso   1.00
C84    C     0.71083   0.88071   0.91867   0.00000  Uiso   1.00
H85    H     0.72463   0.86317   0.91007   0.00000  Uiso   1.00
C86    C     0.65259   0.96141   0.96857   0.00000  Uiso   1.00
C87    C     0.58549   0.96376   0.05787   0.00000  Uiso   1.00
H88    H     0.60513   0.99027   0.11367   0.00000  Uiso   1.00
C89    C     0.60325   0.94127   0.97537   0.00000  Uiso   1.00
C90    C     0.24121   0.23582   0.22570   0.00000  Uiso   1.00
H91    H     0.25230   0.21980   0.16780   0.00000  Uiso   1.00
C92    C     0.52963   0.88797   0.89677   0.00000  Uiso   1.00
H93    H     0.17590   0.19500   0.17450   0.00000  Uiso   1.00
C94    C     0.51443   0.91179   0.98217   0.00000  Uiso   1.00
H95    H     0.48343   0.90117   0.98497   0.00000  Uiso   1.00
C96    C     0.74667   0.82243   0.21277   0.00000  Uiso   1.00
O97    O     0.06231   0.49763   0.99233   0.00000  Uiso   1.00
O98    O     0.73160   0.80747   0.07897   0.00000  Uiso   1.00
C99    C     0.12539   0.49313   0.92703   0.00000  Uiso   1.00
F100   F     0.12067   0.46361   1.04793   0.00000  Uiso   1.00
F101   F     0.81125   0.81989   0.12777   0.00000  Uiso   1.00
C102   C     0.15897   0.53753   0.99683   0.00000  Uiso   1.00
F103   F     0.15769   0.56756   0.88943   0.00000  Uiso   1.00
F104   F     0.14570   0.54190   1.14443   0.00000  Uiso   1.00
C105   C     0.20647   0.54563   1.01443   0.00000  Uiso   1.00
F106   F     0.22517   0.55123   0.87283   0.00000  Uiso   1.00
F107   F     0.20882   0.51333   1.08133   0.00000  Uiso   1.00
F108   F     0.23107   0.58233   1.09093   0.00000  Uiso   1.00
Ag109  Ag    0.85940   0.18157   0.49748   0.00000  Uiso   1.00
O110   O     0.33200   0.34233   0.64723   0.00000  Uiso   1.00
N111   N     0.79956   0.14208   0.35110   0.00000  Uiso   1.00
N112   N     0.71717   0.92573   0.39500   0.00000  Uiso   1.00
C113   C     0.77456   0.09752   0.36160   0.00000  Uiso   1.00
H114   H     0.78450   0.08200   0.42810   0.00000  Uiso   1.00
C115   C     0.73478   0.07348   0.27840   0.00000  Uiso   1.00
C116   C     0.38745   0.42951   0.51083   0.00000  Uiso   1.00
H117   H     0.36017   0.41403   0.45403   0.00000  Uiso   1.00
C118   C     0.41394   0.47487   0.49503   0.00000  Uiso   1.00
H119   H     0.07253   0.82427   0.75667   0.00000  Uiso   1.00
C120   C     0.78596   0.16346   0.25200   0.00000  Uiso   1.00
H121   H     0.80350   0.19480   0.24340   0.00000  Uiso   1.00
C122   C     0.70526   0.02452   0.30190   0.00000  Uiso   1.00
C123   C     0.70291   0.95507   0.39120   0.00000  Uiso   1.00
H124   H     0.67640   0.94820   0.44700   0.00000  Uiso   1.00
C125   C     0.72540   0.99532   0.30870   0.00000  Uiso   1.00
C126   C     0.43085   0.33872   0.55903   0.00000  Uiso   1.00
H127   H     0.44687   0.36583   0.50113   0.00000  Uiso   1.00
C128   C     0.77870   0.97500   0.23010   0.00000  Uiso   1.00
H129   H     0.47167   0.31423   0.50783   0.00000  Uiso   1.00
C130   C     0.75488   0.93598   0.31550   0.00000  Uiso   1.00
H131   H     0.76550   0.91560   0.31830   0.00000  Uiso   1.00
C132   C     0.84424   0.25758   0.54610   0.00000  Uiso   1.00
O133   O     0.16903   0.89801   0.32567   0.00000  Uiso   1.00
O134   O     0.85920   0.25747   0.41230   0.00000  Uiso   1.00
C135   C     0.17353   0.96559   0.26037   0.00000  Uiso   1.00
F136   F     0.20305   0.99039   0.38127   0.00000  Uiso   1.00
F137   F     0.84678   0.32470   0.46110   0.00000  Uiso   1.00
C138   C     0.12913   0.95477   0.33017   0.00000  Uiso   1.00
F139   F     0.09910   0.92346   0.22277   0.00000  Uiso   1.00
F140   F     0.12476   0.93713   0.47777   0.00000  Uiso   1.00
C141   C     0.12103   0.99417   0.34777   0.00000  Uiso   1.00
F142   F     0.11543   1.00727   0.20617   0.00000  Uiso   1.00
F143   F     0.15333   1.02882   0.41467   0.00000  Uiso   1.00
F144   F     0.08433   0.98207   0.42427   0.00000  Uiso   1.00
Ag145  Ag    0.52607   0.51490   0.83081   0.00000  Uiso   1.00
O146   O     0.99866   0.67567   0.98057   0.00000  Uiso   1.00
N147   N     0.46623   0.47541   0.68443   0.00000  Uiso   1.00
N148   N     0.38384   0.25906   0.72833   0.00000  Uiso   1.00
C149   C     0.44123   0.43085   0.69493   0.00000  Uiso   1.00
H150   H     0.45117   0.41533   0.76143   0.00000  Uiso   1.00
C151   C     0.40145   0.40681   0.61173   0.00000  Uiso   1.00
C152   C     0.05411   0.76285   0.84417   0.00000  Uiso   1.00
H153   H     0.02683   0.74737   0.78737   0.00000  Uiso   1.00
C154   C     0.08060   0.80821   0.82837   0.00000  Uiso   1.00
H155   H     0.73920   0.15760   0.09000   0.00000  Uiso   1.00
C156   C     0.45263   0.49679   0.58533   0.00000  Uiso   1.00
H157   H     0.47017   0.52813   0.57673   0.00000  Uiso   1.00
C158   C     0.37193   0.35785   0.63523   0.00000  Uiso   1.00
C159   C     0.36958   0.28840   0.72453   0.00000  Uiso   1.00
H160   H     0.34307   0.28153   0.78033   0.00000  Uiso   1.00
C161   C     0.39207   0.32865   0.64203   0.00000  Uiso   1.00
C162   C     0.09751   0.67206   0.89237   0.00000  Uiso   1.00
H163   H     0.11353   0.69917   0.83447   0.00000  Uiso   1.00
C164   C     0.44537   0.30833   0.56343   0.00000  Uiso   1.00
H165   H     0.13833   0.64757   0.84117   0.00000  Uiso   1.00
C166   C     0.42155   0.26931   0.64883   0.00000  Uiso   1.00
H167   H     0.43217   0.24893   0.65163   0.00000  Uiso   1.00
C168   C     0.51091   0.59091   0.87943   0.00000  Uiso   1.00
O169   O     0.83570   0.23134   0.65900   0.00000  Uiso   1.00
O170   O     0.52587   0.59080   0.74563   0.00000  Uiso   1.00
C171   C     0.84020   0.29892   0.59370   0.00000  Uiso   1.00
F172   F     0.86972   0.32372   0.71460   0.00000  Uiso   1.00
F173   F     0.51345   0.65803   0.79443   0.00000  Uiso   1.00
C174   C     0.79580   0.28810   0.66350   0.00000  Uiso   1.00
F175   F     0.76577   0.25679   0.55610   0.00000  Uiso   1.00
F176   F     0.79143   0.27046   0.81110   0.00000  Uiso   1.00
C177   C     0.78770   0.32750   0.68110   0.00000  Uiso   1.00
F178   F     0.78210   0.34060   0.53950   0.00000  Uiso   1.00
F179   F     0.82000   0.36215   0.74800   0.00000  Uiso   1.00
F180   F     0.75100   0.31540   0.75760   0.00000  Uiso   1.00
Ag181  Ag    0.19273   0.84824   0.16415   0.00000  Uiso   1.00
O182   O     0.66533   0.00900   0.31390   0.00000  Uiso   1.00
N183   N     0.13289   0.80875   0.01777   0.00000  Uiso   1.00
N184   N     0.05050   0.59240   0.06167   0.00000  Uiso   1.00
C185   C     0.10789   0.76419   0.02827   0.00000  Uiso   1.00
H186   H     0.11783   0.74867   0.09477   0.00000  Uiso   1.00
C187   C     0.06811   0.74015   0.94507   0.00000  Uiso   1.00
C188   C     0.72078   0.09618   0.17750   0.00000  Uiso   1.00
H189   H     0.69350   0.08070   0.12070   0.00000  Uiso   1.00
C190   C     0.74727   0.14154   0.16170   0.00000  Uiso   1.00
H191   H     0.40587   0.49093   0.42333   0.00000  Uiso   1.00
C192   C     0.11929   0.83013   0.91867   0.00000  Uiso   1.00
H193   H     0.13683   0.86147   0.91007   0.00000  Uiso   1.00
C194   C     0.03859   0.69119   0.96857   0.00000  Uiso   1.00
C195   C     0.03624   0.62174   0.05787   0.00000  Uiso   1.00
H196   H     0.00973   0.61487   0.11367   0.00000  Uiso   1.00
C197   C     0.05873   0.66199   0.97537   0.00000  Uiso   1.00
C198   C     0.76418   0.00539   0.22570   0.00000  Uiso   1.00
H199   H     0.78020   0.03250   0.16780   0.00000  Uiso   1.00
C200   C     0.11203   0.64167   0.89677   0.00000  Uiso   1.00
H201   H     0.80500   0.98090   0.17450   0.00000  Uiso   1.00
C202   C     0.08821   0.60265   0.98217   0.00000  Uiso   1.00
H203   H     0.09883   0.58227   0.98497   0.00000  Uiso   1.00
C204   C     0.17757   0.92425   0.21277   0.00000  Uiso   1.00
O205   O     0.50237   0.56467   0.99233   0.00000  Uiso   1.00
O206   O     0.19253   0.92414   0.07897   0.00000  Uiso   1.00
C207   C     0.50687   0.63225   0.92703   0.00000  Uiso   1.00
F208   F     0.53639   0.65705   1.04793   0.00000  Uiso   1.00
F209   F     0.18011   0.99137   0.12777   0.00000  Uiso   1.00
C210   C     0.46247   0.62143   0.99683   0.00000  Uiso   1.00
F211   F     0.43244   0.59012   0.88943   0.00000  Uiso   1.00
F212   F     0.45810   0.60379   1.14443   0.00000  Uiso   1.00
C213   C     0.45437   0.66083   1.01443   0.00000  Uiso   1.00
F214   F     0.44877   0.67393   0.87283   0.00000  Uiso   1.00
F215   F     0.48667   0.69548   1.08133   0.00000  Uiso   1.00
F216   F     0.41767   0.64873   1.09093   0.00000  Uiso   1.00
Ag217  Ag    0.81843   0.67783   0.49748   0.00000  Uiso   1.00
O218   O     0.65767   0.98966   0.64723   0.00000  Uiso   1.00
N219   N     0.85792   0.65748   0.35110   0.00000  Uiso   1.00
N220   N     0.07427   0.79144   0.39500   0.00000  Uiso   1.00
C221   C     0.90248   0.67704   0.36160   0.00000  Uiso   1.00
H222   H     0.91800   0.70250   0.42810   0.00000  Uiso   1.00
C223   C     0.92652   0.66130   0.27840   0.00000  Uiso   1.00
C224   C     0.57049   0.95793   0.51083   0.00000  Uiso   1.00
H225   H     0.58597   0.94613   0.45403   0.00000  Uiso   1.00
C226   C     0.52513   0.93906   0.49503   0.00000  Uiso   1.00
H227   H     0.17573   0.24827   0.75667   0.00000  Uiso   1.00
C228   C     0.83654   0.62250   0.25200   0.00000  Uiso   1.00
H229   H     0.80520   0.60870   0.24340   0.00000  Uiso   1.00
C230   C     0.97548   0.68074   0.30190   0.00000  Uiso   1.00
C231   C     0.04493   0.74784   0.39120   0.00000  Uiso   1.00
H232   H     0.05180   0.72820   0.44700   0.00000  Uiso   1.00
C233   C     0.00468   0.73008   0.30870   0.00000  Uiso   1.00
C234   C     0.66128   0.09212   0.55903   0.00000  Uiso   1.00
H235   H     0.63417   0.08103   0.50113   0.00000  Uiso   1.00
C236   C     0.02500   0.80370   0.23010   0.00000  Uiso   1.00
H237   H     0.68577   0.15743   0.50783   0.00000  Uiso   1.00
C238   C     0.06402   0.81890   0.31550   0.00000  Uiso   1.00
H239   H     0.08440   0.84990   0.31830   0.00000  Uiso   1.00
C240   C     0.74242   0.58666   0.54610   0.00000  Uiso   1.00
O241   O     0.10199   0.27103   0.32567   0.00000  Uiso   1.00
O242   O     0.74253   0.60173   0.41230   0.00000  Uiso   1.00
C243   C     0.03441   0.20795   0.26037   0.00000  Uiso   1.00
F244   F     0.00961   0.21267   0.38127   0.00000  Uiso   1.00
F245   F     0.67530   0.52208   0.46110   0.00000  Uiso   1.00
C246   C     0.04523   0.17437   0.33017   0.00000  Uiso   1.00
F247   F     0.07654   0.17565   0.22277   0.00000  Uiso   1.00
F248   F     0.06287   0.18764   0.47777   0.00000  Uiso   1.00
C249   C     0.00583   0.12687   0.34777   0.00000  Uiso   1.00
F250   F    -0.00727   0.10817   0.20617   0.00000  Uiso   1.00
F251   F    -0.02882   0.12452   0.41467   0.00000  Uiso   1.00
F252   F     0.01793   0.10227   0.42427   0.00000  Uiso   1.00
Ag253  Ag    0.48510   0.01116   0.83081   0.00000  Uiso   1.00
O254   O     0.32433   0.32300   0.98057   0.00000  Uiso   1.00
N255   N     0.52459   0.99081   0.68443   0.00000  Uiso   1.00
N256   N     0.74094   0.12477   0.72833   0.00000  Uiso   1.00
C257   C     0.56915   0.01037   0.69493   0.00000  Uiso   1.00
H258   H     0.58467   0.03583   0.76143   0.00000  Uiso   1.00
C259   C     0.59319   0.99463   0.61173   0.00000  Uiso   1.00
C260   C     0.23715   0.29127   0.84417   0.00000  Uiso   1.00
H261   H     0.25263   0.27947   0.78737   0.00000  Uiso   1.00
C262   C     0.19179   0.27240   0.82837   0.00000  Uiso   1.00
H263   H     0.84240   0.58160   0.09000   0.00000  Uiso   1.00
C264   C     0.50321   0.95583   0.58533   0.00000  Uiso   1.00
H265   H     0.47187   0.94203   0.57673   0.00000  Uiso   1.00
C266   C     0.64215   0.01407   0.63523   0.00000  Uiso   1.00
C267   C     0.71160   0.08117   0.72453   0.00000  Uiso   1.00
H268   H     0.71847   0.06153   0.78033   0.00000  Uiso   1.00
C269   C     0.67135   0.06341   0.64203   0.00000  Uiso   1.00
C270   C     0.32794   0.42546   0.89237   0.00000  Uiso   1.00
H271   H     0.30083   0.41437   0.83447   0.00000  Uiso   1.00
C272   C     0.69167   0.13703   0.56343   0.00000  Uiso   1.00
H273   H     0.35243   0.49077   0.84117   0.00000  Uiso   1.00
C274   C     0.73069   0.15223   0.64883   0.00000  Uiso   1.00
H275   H     0.75107   0.18323   0.65163   0.00000  Uiso   1.00
C276   C     0.40909   0.91999   0.87943   0.00000  Uiso   1.00
O277   O     0.76866   0.60436   0.65900   0.00000  Uiso   1.00
O278   O     0.40920   0.93506   0.74563   0.00000  Uiso   1.00
C279   C     0.70108   0.54128   0.59370   0.00000  Uiso   1.00
F280   F     0.67628   0.54600   0.71460   0.00000  Uiso   1.00
F281   F     0.34197   0.85541   0.79443   0.00000  Uiso   1.00
C282   C     0.71190   0.50770   0.66350   0.00000  Uiso   1.00
F283   F     0.74321   0.50898   0.55610   0.00000  Uiso   1.00
F284   F     0.72954   0.52097   0.81110   0.00000  Uiso   1.00
C285   C     0.67250   0.46020   0.68110   0.00000  Uiso   1.00
F286   F     0.65940   0.44150   0.53950   0.00000  Uiso   1.00
F287   F     0.63785   0.45785   0.74800   0.00000  Uiso   1.00
F288   F     0.68460   0.43560   0.75760   0.00000  Uiso   1.00
Ag289  Ag    0.15176   0.34450   0.16415   0.00000  Uiso   1.00
O290   O     0.99100   0.65633   0.31390   0.00000  Uiso   1.00
N291   N     0.19125   0.32415   0.01777   0.00000  Uiso   1.00
N292   N     0.40760   0.45811   0.06167   0.00000  Uiso   1.00
C293   C     0.23581   0.34371   0.02827   0.00000  Uiso   1.00
H294   H     0.25133   0.36917   0.09477   0.00000  Uiso   1.00
C295   C     0.25985   0.32797   0.94507   0.00000  Uiso   1.00
C296   C     0.90382   0.62460   0.17750   0.00000  Uiso   1.00
H297   H     0.91930   0.61280   0.12070   0.00000  Uiso   1.00
C298   C     0.85846   0.60573   0.16170   0.00000  Uiso   1.00
H299   H     0.50907   0.91493   0.42333   0.00000  Uiso   1.00
C300   C     0.16987   0.28917   0.91867   0.00000  Uiso   1.00
H301   H     0.13853   0.27537   0.91007   0.00000  Uiso   1.00
C302   C     0.30881   0.34741   0.96857   0.00000  Uiso   1.00
C303   C     0.37826   0.41451   0.05787   0.00000  Uiso   1.00
H304   H     0.38513   0.39487   0.11367   0.00000  Uiso   1.00
C305   C     0.33801   0.39675   0.97537   0.00000  Uiso   1.00
C306   C     0.99461   0.75879   0.22570   0.00000  Uiso   1.00
H307   H     0.96750   0.74770   0.16780   0.00000  Uiso   1.00
C308   C     0.35833   0.47037   0.89677   0.00000  Uiso   1.00
H309   H     0.01910   0.82410   0.17450   0.00000  Uiso   1.00
C310   C     0.39735   0.48557   0.98217   0.00000  Uiso   1.00
H311   H     0.41773   0.51657   0.98497   0.00000  Uiso   1.00
C312   C     0.07575   0.25333   0.21277   0.00000  Uiso   1.00
O313   O     0.43533   0.93769   0.99233   0.00000  Uiso   1.00
O314   O     0.07586   0.26840   0.07897   0.00000  Uiso   1.00
C315   C     0.36775   0.87461   0.92703   0.00000  Uiso   1.00
F316   F     0.34295   0.87933   1.04793   0.00000  Uiso   1.00
F317   F     0.00863   0.18875   0.12777   0.00000  Uiso   1.00
C318   C     0.37857   0.84103   0.99683   0.00000  Uiso   1.00
F319   F     0.40988   0.84231   0.88943   0.00000  Uiso   1.00
F320   F     0.39621   0.85430   1.14443   0.00000  Uiso   1.00
C321   C     0.33917   0.79353   1.01443   0.00000  Uiso   1.00
F322   F     0.32607   0.77483   0.87283   0.00000  Uiso   1.00
F323   F     0.30452   0.79118   1.08133   0.00000  Uiso   1.00
F324   F     0.35127   0.76893   1.09093   0.00000  Uiso   1.00
Ag325  Ag    0.67783   0.85940   0.50252   0.00000  Uiso   1.00
O326   O     0.98966   0.33200   0.35277   0.00000  Uiso   1.00
N327   N     0.65748   0.79956   0.64890   0.00000  Uiso   1.00
N328   N     0.79144   0.71717   0.60500   0.00000  Uiso   1.00
C329   C     0.67704   0.77456   0.63840   0.00000  Uiso   1.00
H330   H     0.70250   0.78450   0.57190   0.00000  Uiso   1.00
C331   C     0.66130   0.73478   0.72160   0.00000  Uiso   1.00
C332   C     0.95793   0.38745   0.48917   0.00000  Uiso   1.00
H333   H     0.94613   0.36017   0.54597   0.00000  Uiso   1.00
C334   C     0.93906   0.41394   0.50497   0.00000  Uiso   1.00
H335   H     0.24827   0.07253   0.24333   0.00000  Uiso   1.00
C336   C     0.62250   0.78596   0.74800   0.00000  Uiso   1.00
H337   H     0.60870   0.80350   0.75660   0.00000  Uiso   1.00
C338   C     0.68074   0.70526   0.69810   0.00000  Uiso   1.00
C339   C     0.74784   0.70291   0.60880   0.00000  Uiso   1.00
H340   H     0.72820   0.67640   0.55300   0.00000  Uiso   1.00
C341   C     0.73008   0.72540   0.69130   0.00000  Uiso   1.00
C342   C     0.09212   0.43085   0.44097   0.00000  Uiso   1.00
H343   H     0.08103   0.44687   0.49887   0.00000  Uiso   1.00
C344   C     0.80370   0.77870   0.76990   0.00000  Uiso   1.00
H345   H     0.15743   0.47167   0.49217   0.00000  Uiso   1.00
C346   C     0.81890   0.75488   0.68450   0.00000  Uiso   1.00
H347   H     0.84990   0.76550   0.68170   0.00000  Uiso   1.00
C348   C     0.58666   0.84424   0.45390   0.00000  Uiso   1.00
O349   O     0.27103   0.16903   0.67433   0.00000  Uiso   1.00
O350   O     0.60173   0.85920   0.58770   0.00000  Uiso   1.00
C351   C     0.20795   0.17353   0.73963   0.00000  Uiso   1.00
F352   F     0.21267   0.20305   0.61873   0.00000  Uiso   1.00
F353   F     0.52208   0.84678   0.53890   0.00000  Uiso   1.00
C354   C     0.17437   0.12913   0.66983   0.00000  Uiso   1.00
F355   F     0.17565   0.09910   0.77723   0.00000  Uiso   1.00
F356   F     0.18764   0.12476   0.52223   0.00000  Uiso   1.00
C357   C     0.12687   0.12103   0.65223   0.00000  Uiso   1.00
F358   F     0.10817   0.11543   0.79383   0.00000  Uiso   1.00
F359   F     0.12452   0.15333   0.58533   0.00000  Uiso   1.00
F360   F     0.10227   0.08433   0.57573   0.00000  Uiso   1.00
Ag361  Ag    0.34450   0.19273   0.83585   0.00000  Uiso   1.00
O362   O     0.65633   0.66533   0.68610   0.00000  Uiso   1.00
N363   N     0.32415   0.13289   0.98223   0.00000  Uiso   1.00
N364   N     0.45811   0.05050   0.93833   0.00000  Uiso   1.00
C365   C     0.34371   0.10789   0.97173   0.00000  Uiso   1.00
H366   H     0.36917   0.11783   0.90523   0.00000  Uiso   1.00
C367   C     0.32797   0.06811   0.05493   0.00000  Uiso   1.00
C368   C     0.62460   0.72078   0.82250   0.00000  Uiso   1.00
H369   H     0.61280   0.69350   0.87930   0.00000  Uiso   1.00
C370   C     0.60573   0.74727   0.83830   0.00000  Uiso   1.00
H371   H     0.91493   0.40587   0.57667   0.00000  Uiso   1.00
C372   C     0.28917   0.11929   0.08133   0.00000  Uiso   1.00
H373   H     0.27537   0.13683   0.08993   0.00000  Uiso   1.00
C374   C     0.34741   0.03859   0.03143   0.00000  Uiso   1.00
C375   C     0.41451   0.03624   0.94213   0.00000  Uiso   1.00
H376   H     0.39487   0.00973   0.88633   0.00000  Uiso   1.00
C377   C     0.39675   0.05873   0.02463   0.00000  Uiso   1.00
C378   C     0.75879   0.76418   0.77430   0.00000  Uiso   1.00
H379   H     0.74770   0.78020   0.83220   0.00000  Uiso   1.00
C380   C     0.47037   0.11203   0.10323   0.00000  Uiso   1.00
H381   H     0.82410   0.80500   0.82550   0.00000  Uiso   1.00
C382   C     0.48557   0.08821   0.01783   0.00000  Uiso   1.00
H383   H     0.51657   0.09883   0.01503   0.00000  Uiso   1.00
C384   C     0.25333   0.17757   0.78723   0.00000  Uiso   1.00
O385   O     0.93769   0.50237   0.00767   0.00000  Uiso   1.00
O386   O     0.26840   0.19253   0.92103   0.00000  Uiso   1.00
C387   C     0.87461   0.50687   0.07297   0.00000  Uiso   1.00
F388   F     0.87933   0.53639  -0.04793   0.00000  Uiso   1.00
F389   F     0.18875   0.18011   0.87223   0.00000  Uiso   1.00
C390   C     0.84103   0.46247   0.00317   0.00000  Uiso   1.00
F391   F     0.84231   0.43244   0.11057   0.00000  Uiso   1.00
F392   F     0.85430   0.45810  -0.14443   0.00000  Uiso   1.00
C393   C     0.79353   0.45437  -0.01443   0.00000  Uiso   1.00
F394   F     0.77483   0.44877   0.12717   0.00000  Uiso   1.00
F395   F     0.79118   0.48667  -0.08133   0.00000  Uiso   1.00
F396   F     0.76893   0.41767  -0.09093   0.00000  Uiso   1.00
Ag397  Ag    0.01116   0.52607   0.16919   0.00000  Uiso   1.00
O398   O     0.32300   0.99866   0.01943   0.00000  Uiso   1.00
N399   N     0.99081   0.46623   0.31557   0.00000  Uiso   1.00
N400   N     0.12477   0.38384   0.27167   0.00000  Uiso   1.00
C401   C     0.01037   0.44123   0.30507   0.00000  Uiso   1.00
H402   H     0.03583   0.45117   0.23857   0.00000  Uiso   1.00
C403   C     0.99463   0.40145   0.38827   0.00000  Uiso   1.00
C404   C     0.29127   0.05411   0.15583   0.00000  Uiso   1.00
H405   H     0.27947   0.02683   0.21263   0.00000  Uiso   1.00
C406   C     0.27240   0.08060   0.17163   0.00000  Uiso   1.00
H407   H     0.58160   0.73920   0.91000   0.00000  Uiso   1.00
C408   C     0.95583   0.45263   0.41467   0.00000  Uiso   1.00
H409   H     0.94203   0.47017   0.42327   0.00000  Uiso   1.00
C410   C     0.01407   0.37193   0.36477   0.00000  Uiso   1.00
C411   C     0.08117   0.36958   0.27547   0.00000  Uiso   1.00
H412   H     0.06153   0.34307   0.21967   0.00000  Uiso   1.00
C413   C     0.06341   0.39207   0.35797   0.00000  Uiso   1.00
C414   C     0.42546   0.09751   0.10763   0.00000  Uiso   1.00
H415   H     0.41437   0.11353   0.16553   0.00000  Uiso   1.00
C416   C     0.13703   0.44537   0.43657   0.00000  Uiso   1.00
H417   H     0.49077   0.13833   0.15883   0.00000  Uiso   1.00
C418   C     0.15223   0.42155   0.35117   0.00000  Uiso   1.00
H419   H     0.18323   0.43217   0.34837   0.00000  Uiso   1.00
C420   C     0.91999   0.51091   0.12057   0.00000  Uiso   1.00
O421   O     0.60436   0.83570   0.34100   0.00000  Uiso   1.00
O422   O     0.93506   0.52587   0.25437   0.00000  Uiso   1.00
C423   C     0.54128   0.84020   0.40630   0.00000  Uiso   1.00
F424   F     0.54600   0.86972   0.28540   0.00000  Uiso   1.00
F425   F     0.85541   0.51345   0.20557   0.00000  Uiso   1.00
C426   C     0.50770   0.79580   0.33650   0.00000  Uiso   1.00
F427   F     0.50898   0.76577   0.44390   0.00000  Uiso   1.00
F428   F     0.52097   0.79143   0.18890   0.00000  Uiso   1.00
C429   C     0.46020   0.78770   0.31890   0.00000  Uiso   1.00
F430   F     0.44150   0.78210   0.46050   0.00000  Uiso   1.00
F431   F     0.45785   0.82000   0.25200   0.00000  Uiso   1.00
F432   F     0.43560   0.75100   0.24240   0.00000  Uiso   1.00
Ag433  Ag    0.14060   0.81843   0.50252   0.00000  Uiso   1.00
O434   O     0.66800   0.65767   0.35277   0.00000  Uiso   1.00
N435   N     0.20044   0.85792   0.64890   0.00000  Uiso   1.00
N436   N     0.28283   0.07427   0.60500   0.00000  Uiso   1.00
C437   C     0.22544   0.90248   0.63840   0.00000  Uiso   1.00
H438   H     0.21550   0.91800   0.57190   0.00000  Uiso   1.00
C439   C     0.26522   0.92652   0.72160   0.00000  Uiso   1.00
C440   C     0.61255   0.57049   0.48917   0.00000  Uiso   1.00
H441   H     0.63983   0.58597   0.54597   0.00000  Uiso   1.00
C442   C     0.58606   0.52513   0.50497   0.00000  Uiso   1.00
H443   H     0.92747   0.17573   0.24333   0.00000  Uiso   1.00
C444   C     0.21404   0.83654   0.74800   0.00000  Uiso   1.00
H445   H     0.19650   0.80520   0.75660   0.00000  Uiso   1.00
C446   C     0.29474   0.97548   0.69810   0.00000  Uiso   1.00
C447   C     0.29709   0.04493   0.60880   0.00000  Uiso   1.00
H448   H     0.32360   0.05180   0.55300   0.00000  Uiso   1.00
C449   C     0.27460   0.00468   0.69130   0.00000  Uiso   1.00
C450   C     0.56915   0.66128   0.44097   0.00000  Uiso   1.00
H451   H     0.55313   0.63417   0.49887   0.00000  Uiso   1.00
C452   C     0.22130   0.02500   0.76990   0.00000  Uiso   1.00
H453   H     0.52833   0.68577   0.49217   0.00000  Uiso   1.00
C454   C     0.24512   0.06402   0.68450   0.00000  Uiso   1.00
H455   H     0.23450   0.08440   0.68170   0.00000  Uiso   1.00
C456   C     0.15576   0.74242   0.45390   0.00000  Uiso   1.00
O457   O     0.83097   0.10199   0.67433   0.00000  Uiso   1.00
O458   O     0.14080   0.74253   0.58770   0.00000  Uiso   1.00
C459   C     0.82647   0.03441   0.73963   0.00000  Uiso   1.00
F460   F     0.79695   0.00961   0.61873   0.00000  Uiso   1.00
F461   F     0.15322   0.67530   0.53890   0.00000  Uiso   1.00
C462   C     0.87087   0.04523   0.66983   0.00000  Uiso   1.00
F463   F     0.90090   0.07654   0.77723   0.00000  Uiso   1.00
F464   F     0.87524   0.06287   0.52223   0.00000  Uiso   1.00
C465   C     0.87897   0.00583   0.65223   0.00000  Uiso   1.00
F466   F     0.88457  -0.00727   0.79383   0.00000  Uiso   1.00
F467   F     0.84667  -0.02882   0.58533   0.00000  Uiso   1.00
F468   F     0.91567   0.01793   0.57573   0.00000  Uiso   1.00
Ag469  Ag    0.80727   0.15176   0.83585   0.00000  Uiso   1.00
O470   O     0.33467   0.99100   0.68610   0.00000  Uiso   1.00
N471   N     0.86711   0.19125   0.98223   0.00000  Uiso   1.00
N472   N     0.94950   0.40760   0.93833   0.00000  Uiso   1.00
C473   C     0.89211   0.23581   0.97173   0.00000  Uiso   1.00
H474   H     0.88217   0.25133   0.90523   0.00000  Uiso   1.00
C475   C     0.93189   0.25985   0.05493   0.00000  Uiso   1.00
C476   C     0.27922   0.90382   0.82250   0.00000  Uiso   1.00
H477   H     0.30650   0.91930   0.87930   0.00000  Uiso   1.00
C478   C     0.25273   0.85846   0.83830   0.00000  Uiso   1.00
H479   H     0.59413   0.50907   0.57667   0.00000  Uiso   1.00
C480   C     0.88071   0.16987   0.08133   0.00000  Uiso   1.00
H481   H     0.86317   0.13853   0.08993   0.00000  Uiso   1.00
C482   C     0.96141   0.30881   0.03143   0.00000  Uiso   1.00
C483   C     0.96376   0.37826   0.94213   0.00000  Uiso   1.00
H484   H     0.99027   0.38513   0.88633   0.00000  Uiso   1.00
C485   C     0.94127   0.33801   0.02463   0.00000  Uiso   1.00
C486   C     0.23582   0.99461   0.77430   0.00000  Uiso   1.00
H487   H     0.21980   0.96750   0.83220   0.00000  Uiso   1.00
C488   C     0.88797   0.35833   0.10323   0.00000  Uiso   1.00
H489   H     0.19500   0.01910   0.82550   0.00000  Uiso   1.00
C490   C     0.91179   0.39735   0.01783   0.00000  Uiso   1.00
H491   H     0.90117   0.41773   0.01503   0.00000  Uiso   1.00
C492   C     0.82243   0.07575   0.78723   0.00000  Uiso   1.00
O493   O     0.49763   0.43533   0.00767   0.00000  Uiso   1.00
O494   O     0.80747   0.07586   0.92103   0.00000  Uiso   1.00
C495   C     0.49313   0.36775   0.07297   0.00000  Uiso   1.00
F496   F     0.46361   0.34295  -0.04793   0.00000  Uiso   1.00
F497   F     0.81989   0.00863   0.87223   0.00000  Uiso   1.00
C498   C     0.53753   0.37857   0.00317   0.00000  Uiso   1.00
F499   F     0.56756   0.40988   0.11057   0.00000  Uiso   1.00
F500   F     0.54190   0.39621  -0.14443   0.00000  Uiso   1.00
C501   C     0.54563   0.33917  -0.01443   0.00000  Uiso   1.00
F502   F     0.55123   0.32607   0.12717   0.00000  Uiso   1.00
F503   F     0.51333   0.30452  -0.08133   0.00000  Uiso   1.00
F504   F     0.58233   0.35127  -0.09093   0.00000  Uiso   1.00
Ag505  Ag    0.47393   0.48510   0.16919   0.00000  Uiso   1.00
O506   O     0.00134   0.32433   0.01943   0.00000  Uiso   1.00
N507   N     0.53377   0.52459   0.31557   0.00000  Uiso   1.00
N508   N     0.61616   0.74094   0.27167   0.00000  Uiso   1.00
C509   C     0.55877   0.56915   0.30507   0.00000  Uiso   1.00
H510   H     0.54883   0.58467   0.23857   0.00000  Uiso   1.00
C511   C     0.59855   0.59319   0.38827   0.00000  Uiso   1.00
C512   C     0.94589   0.23715   0.15583   0.00000  Uiso   1.00
H513   H     0.97317   0.25263   0.21263   0.00000  Uiso   1.00
C514   C     0.91940   0.19179   0.17163   0.00000  Uiso   1.00
H515   H     0.26080   0.84240   0.91000   0.00000  Uiso   1.00
C516   C     0.54737   0.50321   0.41467   0.00000  Uiso   1.00
H517   H     0.52983   0.47187   0.42327   0.00000  Uiso   1.00
C518   C     0.62807   0.64215   0.36477   0.00000  Uiso   1.00
C519   C     0.63042   0.71160   0.27547   0.00000  Uiso   1.00
H520   H     0.65693   0.71847   0.21967   0.00000  Uiso   1.00
C521   C     0.60793   0.67135   0.35797   0.00000  Uiso   1.00
C522   C     0.90249   0.32794   0.10763   0.00000  Uiso   1.00
H523   H     0.88647   0.30083   0.16553   0.00000  Uiso   1.00
C524   C     0.55463   0.69167   0.43657   0.00000  Uiso   1.00
H525   H     0.86167   0.35243   0.15883   0.00000  Uiso   1.00
C526   C     0.57845   0.73069   0.35117   0.00000  Uiso   1.00
H527   H     0.56783   0.75107   0.34837   0.00000  Uiso   1.00
C528   C     0.48909   0.40909   0.12057   0.00000  Uiso   1.00
O529   O     0.16430   0.76866   0.34100   0.00000  Uiso   1.00
O530   O     0.47413   0.40920   0.25437   0.00000  Uiso   1.00
C531   C     0.15980   0.70108   0.40630   0.00000  Uiso   1.00
F532   F     0.13028   0.67628   0.28540   0.00000  Uiso   1.00
F533   F     0.48655   0.34197   0.20557   0.00000  Uiso   1.00
C534   C     0.20420   0.71190   0.33650   0.00000  Uiso   1.00
F535   F     0.23423   0.74321   0.44390   0.00000  Uiso   1.00
F536   F     0.20857   0.72954   0.18890   0.00000  Uiso   1.00
C537   C     0.21230   0.67250   0.31890   0.00000  Uiso   1.00
F538   F     0.21790   0.65940   0.46050   0.00000  Uiso   1.00
F539   F     0.18000   0.63785   0.25200   0.00000  Uiso   1.00
F540   F     0.24900   0.68460   0.24240   0.00000  Uiso   1.00
Ag541  Ag    0.18157   0.32217   0.50252   0.00000  Uiso   1.00
O542   O     0.34233   0.01034   0.35277   0.00000  Uiso   1.00
N543   N     0.14208   0.34252   0.64890   0.00000  Uiso   1.00
N544   N     0.92573   0.20856   0.60500   0.00000  Uiso   1.00
C545   C     0.09752   0.32296   0.63840   0.00000  Uiso   1.00
H546   H     0.08200   0.29750   0.57190   0.00000  Uiso   1.00
C547   C     0.07348   0.33870   0.72160   0.00000  Uiso   1.00
C548   C     0.42951   0.04207   0.48917   0.00000  Uiso   1.00
H549   H     0.41403   0.05387   0.54597   0.00000  Uiso   1.00
C550   C     0.47487   0.06094   0.50497   0.00000  Uiso   1.00
H551   H     0.82427   0.75173   0.24333   0.00000  Uiso   1.00
C552   C     0.16346   0.37750   0.74800   0.00000  Uiso   1.00
H553   H     0.19480   0.39130   0.75660   0.00000  Uiso   1.00
C554   C     0.02452   0.31926   0.69810   0.00000  Uiso   1.00
C555   C     0.95507   0.25216   0.60880   0.00000  Uiso   1.00
H556   H     0.94820   0.27180   0.55300   0.00000  Uiso   1.00
C557   C     0.99532   0.26992   0.69130   0.00000  Uiso   1.00
C558   C     0.33872   0.90788   0.44097   0.00000  Uiso   1.00
H559   H     0.36583   0.91897   0.49887   0.00000  Uiso   1.00
C560   C     0.97500   0.19630   0.76990   0.00000  Uiso   1.00
H561   H     0.31423   0.84257   0.49217   0.00000  Uiso   1.00
C562   C     0.93598   0.18110   0.68450   0.00000  Uiso   1.00
H563   H     0.91560   0.15010   0.68170   0.00000  Uiso   1.00
C564   C     0.25758   0.41334   0.45390   0.00000  Uiso   1.00
O565   O     0.89801   0.72897   0.67433   0.00000  Uiso   1.00
O566   O     0.25747   0.39827   0.58770   0.00000  Uiso   1.00
C567   C     0.96559   0.79205   0.73963   0.00000  Uiso   1.00
F568   F     0.99039   0.78733   0.61873   0.00000  Uiso   1.00
F569   F     0.32470   0.47792   0.53890   0.00000  Uiso   1.00
C570   C     0.95477   0.82563   0.66983   0.00000  Uiso   1.00
F571   F     0.92346   0.82435   0.77723   0.00000  Uiso   1.00
F572   F     0.93713   0.81236   0.52223   0.00000  Uiso   1.00
C573   C     0.99417   0.87313   0.65223   0.00000  Uiso   1.00
F574   F     1.00727   0.89183   0.79383   0.00000  Uiso   1.00
F575   F     1.02882   0.87548   0.58533   0.00000  Uiso   1.00
F576   F     0.98207   0.89773   0.57573   0.00000  Uiso   1.00
Ag577  Ag    0.84824   0.65550   0.83585   0.00000  Uiso   1.00
O578   O     0.00900   0.34367   0.68610   0.00000  Uiso   1.00
N579   N     0.80875   0.67585   0.98223   0.00000  Uiso   1.00
N580   N     0.59240   0.54189   0.93833   0.00000  Uiso   1.00
C581   C     0.76419   0.65629   0.97173   0.00000  Uiso   1.00
H582   H     0.74867   0.63083   0.90523   0.00000  Uiso   1.00
C583   C     0.74015   0.67203   0.05493   0.00000  Uiso   1.00
C584   C     0.09618   0.37540   0.82250   0.00000  Uiso   1.00
H585   H     0.08070   0.38720   0.87930   0.00000  Uiso   1.00
C586   C     0.14154   0.39427   0.83830   0.00000  Uiso   1.00
H587   H     0.49093   0.08507   0.57667   0.00000  Uiso   1.00
C588   C     0.83013   0.71083   0.08133   0.00000  Uiso   1.00
H589   H     0.86147   0.72463   0.08993   0.00000  Uiso   1.00
C590   C     0.69119   0.65259   0.03143   0.00000  Uiso   1.00
C591   C     0.62174   0.58549   0.94213   0.00000  Uiso   1.00
H592   H     0.61487   0.60513   0.88633   0.00000  Uiso   1.00
C593   C     0.66199   0.60325   0.02463   0.00000  Uiso   1.00
C594   C     0.00539   0.24121   0.77430   0.00000  Uiso   1.00
H595   H     0.03250   0.25230   0.83220   0.00000  Uiso   1.00
C596   C     0.64167   0.52963   0.10323   0.00000  Uiso   1.00
H597   H     0.98090   0.17590   0.82550   0.00000  Uiso   1.00
C598   C     0.60265   0.51443   0.01783   0.00000  Uiso   1.00
H599   H     0.58227   0.48343   0.01503   0.00000  Uiso   1.00
C600   C     0.92425   0.74667   0.78723   0.00000  Uiso   1.00
O601   O     0.56467   0.06231   0.00767   0.00000  Uiso   1.00
O602   O     0.92414   0.73160   0.92103   0.00000  Uiso   1.00
C603   C     0.63225   0.12539   0.07297   0.00000  Uiso   1.00
F604   F     0.65705   0.12067  -0.04793   0.00000  Uiso   1.00
F605   F     0.99137   0.81125   0.87223   0.00000  Uiso   1.00
C606   C     0.62143   0.15897   0.00317   0.00000  Uiso   1.00
F607   F     0.59012   0.15769   0.11057   0.00000  Uiso   1.00
F608   F     0.60379   0.14570  -0.14443   0.00000  Uiso   1.00
C609   C     0.66083   0.20647  -0.01443   0.00000  Uiso   1.00
F610   F     0.67393   0.22517   0.12717   0.00000  Uiso   1.00
F611   F     0.69548   0.20882  -0.08133   0.00000  Uiso   1.00
F612   F     0.64873   0.23107  -0.09093   0.00000  Uiso   1.00
Ag613  Ag    0.51490   0.98884   0.16919   0.00000  Uiso   1.00
O614   O     0.67567   0.67700   0.01943   0.00000  Uiso   1.00
N615   N     0.47541   0.00919   0.31557   0.00000  Uiso   1.00
N616   N     0.25906   0.87523   0.27167   0.00000  Uiso   1.00
C617   C     0.43085   0.98963   0.30507   0.00000  Uiso   1.00
H618   H     0.41533   0.96417   0.23857   0.00000  Uiso   1.00
C619   C     0.40681   0.00537   0.38827   0.00000  Uiso   1.00
C620   C     0.76285   0.70873   0.15583   0.00000  Uiso   1.00
H621   H     0.74737   0.72053   0.21263   0.00000  Uiso   1.00
C622   C     0.80821   0.72760   0.17163   0.00000  Uiso   1.00
H623   H     0.15760   0.41840   0.91000   0.00000  Uiso   1.00
C624   C     0.49679   0.04417   0.41467   0.00000  Uiso   1.00
H625   H     0.52813   0.05797   0.42327   0.00000  Uiso   1.00
C626   C     0.35785   0.98593   0.36477   0.00000  Uiso   1.00
C627   C     0.28840   0.91883   0.27547   0.00000  Uiso   1.00
H628   H     0.28153   0.93847   0.21967   0.00000  Uiso   1.00
C629   C     0.32865   0.93659   0.35797   0.00000  Uiso   1.00
C630   C     0.67206   0.57454   0.10763   0.00000  Uiso   1.00
H631   H     0.69917   0.58563   0.16553   0.00000  Uiso   1.00
C632   C     0.30833   0.86297   0.43657   0.00000  Uiso   1.00
H633   H     0.64757   0.50923   0.15883   0.00000  Uiso   1.00
C634   C     0.26931   0.84777   0.35117   0.00000  Uiso   1.00
H635   H     0.24893   0.81677   0.34837   0.00000  Uiso   1.00
C636   C     0.59091   0.08001   0.12057   0.00000  Uiso   1.00
O637   O     0.23134   0.39564   0.34100   0.00000  Uiso   1.00
O638   O     0.59080   0.06494   0.25437   0.00000  Uiso   1.00
C639   C     0.29892   0.45872   0.40630   0.00000  Uiso   1.00
F640   F     0.32372   0.45400   0.28540   0.00000  Uiso   1.00
F641   F     0.65803   0.14459   0.20557   0.00000  Uiso   1.00
C642   C     0.28810   0.49230   0.33650   0.00000  Uiso   1.00
F643   F     0.25679   0.49102   0.44390   0.00000  Uiso   1.00
F644   F     0.27046   0.47903   0.18890   0.00000  Uiso   1.00
C645   C     0.32750   0.53980   0.31890   0.00000  Uiso   1.00
F646   F     0.34060   0.55850   0.46050   0.00000  Uiso   1.00
F647   F     0.36215   0.54215   0.25200   0.00000  Uiso   1.00
F648   F     0.31540   0.56440   0.24240   0.00000  Uiso   1.00
loop_
_geom_bond_atom_site_label_1
_geom_bond_atom_site_label_2
_geom_bond_distance
_geom_bond_site_symmetry_2
_ccdc_geom_bond_type
Ag1    N3      2.200   .     S
Ag1    Ag361   3.225   .     S
Ag1    N436    2.199   .     S
O2     C50     1.216   1_455 S
N3     C5      1.348   .     A
N3     C12     1.344   .     A
N4     C15     1.339   .     A
N4     C22     1.348   .     A
N4     Ag541   2.199   .     S
C5     H6      0.950   .     S
C5     C7      1.391   .     A
C7     C80     1.396   .     A
C7     C14     1.497   .     S
C8     C43     1.396   .     A
C8     H9      0.950   .     S
C8     C10     1.379   .     A
C10    H83     0.950   .     S
C10    C48     1.389   .     A
H11    C46     0.950   .     S
C12    C82     1.389   .     A
C12    H13     0.949   .     S
C14    O74     1.216   .     D
C14    C17     1.495   .     S
C15    H16     0.950   .     S
C15    C17     1.395   .     A
C17    C90     1.395   .     A
C18    C53     1.395   .     A
C18    H19     0.952   .     S
C18    C56     1.381   .     A
C20    C90     1.381   .     A
C20    H93     0.951   .     S
C20    C22     1.381   .     A
H21    C56     0.951   .     S
C22    H23     0.949   .     S
C24    O61     1.237   .     A
C24    O26     1.229   .     A
C24    C63     1.563   .     S
O25    C96     1.237   .     A
C27    C96     1.563   .     S
C27    F28     1.387   .     S
C27    F101    1.366   .     S
C27    C30     1.510   .     S
F29    C63     1.366   .     S
C30    F31     1.392   .     S
C30    F32     1.346   .     S
C30    C33     1.537   .     S
C33    F34     1.312   .     S
C33    F35     1.292   .     S
C33    F36     1.294   .     S
Ag37   N472    2.199   .     S
Ag37   N39     2.200   1_655 S
Ag37   Ag397   3.225   1_656 S
O38    C86     1.216   1_545 A
N39    C48     1.344   .     A
N39    Ag37    2.200   1_455 S
N39    C41     1.348   1_455 A
N40    C51     1.339   .     A
N40    C58     1.348   .     A
N40    Ag577   2.199   .     S
C41    H42     0.950   .     S
C41    N39     1.348   1_655 A
C41    C43     1.391   1_655 S
C43    C41     1.391   1_455 S
C43    C50     1.497   1_455 A
C44    C79     1.396   .     A
C44    H45     0.950   .     S
C44    C46     1.379   .     A
C46    C84     1.389   .     A
H47    C82     0.950   .     S
C48    H49     0.949   .     S
C50    C53     1.495   .     S
C50    O2      1.216   1_655 S
C50    C43     1.497   1_655 A
C51    H52     0.950   .     S
C51    C53     1.395   .     A
C54    C89     1.395   .     A
C54    H55     0.952   .     S
C54    C92     1.381   .     A
C56    C58     1.381   .     A
H57    C92     0.951   .     S
C58    H59     0.949   .     S
C60    O97     1.237   .     A
C60    O62     1.229   .     A
C60    C99     1.563   .     S
C63    F64     1.387   .     S
C63    C66     1.510   .     S
F65    C99     1.366   .     S
C66    F67     1.392   .     S
C66    F68     1.346   .     S
C66    C69     1.537   .     S
C69    F70     1.312   .     S
C69    F71     1.292   .     S
C69    F72     1.294   .     S
Ag73   N75     2.200   .     S
Ag73   Ag325   3.225   .     S
Ag73   N508    2.199   .     S
N75    C77     1.348   .     A
N75    C84     1.344   1_554 A
N76    C87     1.339   .     A
N76    Ag613   2.199   .     S
N76    C94     1.348   1_554 S
C77    H78     0.950   .     S
C77    C79     1.391   1_554 A
C79    C86     1.497   .     S
C79    C77     1.391   1_556 A
C80    H81     0.950   .     S
C80    C82     1.379   .     A
C84    H85     0.949   .     S
C84    N75     1.344   1_556 A
C86    C89     1.495   .     S
C86    O38     1.216   1_565 A
C87    H88     0.950   .     S
C87    C89     1.395   1_554 A
C89    C87     1.395   1_556 A
C90    H91     0.952   .     S
C92    C94     1.381   .     A
C94    H95     0.949   .     S
C94    N76     1.348   1_556 S
C96    O98     1.229   .     A
C99    F100    1.387   .     S
C99    C102    1.510   .     S
C102   F103    1.392   .     S
C102   F104    1.346   .     S
C102   C105    1.537   .     S
C105   F106    1.312   .     S
C105   F107    1.292   .     S
C105   F108    1.294   .     S
Ag109  N111    2.200   .     S
Ag109  Ag469   3.225   .     S
Ag109  N544    2.199   .     S
O110   C158    1.216   .     D
N111   C113    1.348   .     A
N111   C120    1.344   .     A
N112   C123    1.339   .     A
N112   C130    1.348   .     A
N112   Ag325   2.199   .     S
C113   H114    0.950   .     S
C113   C115    1.391   .     A
C115   C188    1.396   .     A
C115   C122    1.497   .     S
C116   C151    1.396   .     A
C116   H117    0.950   .     S
C116   C118    1.379   .     A
C118   H191    0.950   .     S
C118   C156    1.389   .     A
H119   C154    0.950   .     S
C120   C190    1.389   .     A
C120   H121    0.949   .     S
C122   O182    1.216   .     D
C122   C125    1.495   1_545 S
C123   H124    0.950   .     S
C123   C125    1.395   .     A
C125   C122    1.495   1_565 S
C125   C198    1.395   1_565 A
C126   C161    1.395   .     A
C126   H127    0.952   .     S
C126   C164    1.381   .     A
C128   H201    0.951   .     S
C128   C130    1.381   .     A
C128   C198    1.381   1_565 A
H129   C164    0.951   .     S
C130   H131    0.949   .     S
C132   O169    1.237   .     A
C132   O134    1.229   .     A
C132   C171    1.563   .     S
O133   C204    1.237   .     A
C135   C204    1.563   .     S
C135   F136    1.387   .     S
C135   F209    1.366   .     S
C135   C138    1.510   .     S
F137   C171    1.366   .     S
C138   F139    1.392   .     S
C138   F140    1.346   .     S
C138   C141    1.537   .     S
C141   F142    1.312   .     S
C141   F143    1.292   .     S
C141   F144    1.294   .     S
Ag145  N147    2.200   .     S
Ag145  N580    2.199   .     S
Ag145  Ag505   3.225   1_556 A
O146   C194    1.216   1_655 S
N147   C149    1.348   .     A
N147   C156    1.344   .     A
N148   C159    1.339   .     A
N148   C166    1.348   .     A
N148   Ag361   2.199   .     S
C149   H150    0.950   .     S
C149   C151    1.391   .     A
C151   C158    1.497   .     S
C152   C187    1.396   .     A
C152   H153    0.950   .     S
C152   C154    1.379   .     A
C154   C192    1.389   .     A
H155   C190    0.950   .     S
C156   H157    0.949   .     S
C158   C161    1.495   .     S
C159   H160    0.950   .     S
C159   C161    1.395   .     A
C162   C197    1.395   .     A
C162   H163    0.952   .     S
C162   C200    1.381   .     A
C164   C166    1.381   .     A
H165   C200    0.951   .     S
C166   H167    0.949   .     S
C168   O205    1.237   .     A
C168   O170    1.229   .     A
C168   C207    1.563   .     S
C171   F172    1.387   .     S
C171   C174    1.510   .     S
F173   C207    1.366   .     S
C174   F175    1.392   .     S
C174   F176    1.346   .     S
C174   C177    1.537   .     S
C177   F178    1.312   .     S
C177   F179    1.292   .     S
C177   F180    1.294   .     S
Ag181  N183    2.200   .     S
Ag181  Ag433   3.225   .     S
Ag181  N616    2.199   .     S
N183   C185    1.348   .     A
N183   C192    1.344   1_554 A
N184   C195    1.339   .     A
N184   Ag397   2.199   .     S
N184   C202    1.348   1_554 A
C185   H186    0.950   .     S
C185   C187    1.391   1_554 S
C187   C194    1.497   .     S
C187   C185    1.391   1_556 S
C188   H189    0.950   .     S
C188   C190    1.379   .     A
C192   H193    0.949   .     S
C192   N183    1.344   1_556 A
C194   C197    1.495   .     S
C194   O146    1.216   1_455 S
C195   H196    0.950   .     S
C195   C197    1.395   1_554 A
C197   C195    1.395   1_556 A
C198   H199    0.952   .     S
C198   C125    1.395   1_545 A
C198   C128    1.381   1_545 A
C200   C202    1.381   .     A
C202   H203    0.949   .     S
C202   N184    1.348   1_556 A
C204   O206    1.229   .     A
C207   F208    1.387   .     S
C207   C210    1.510   .     S
C210   F211    1.392   .     S
C210   F212    1.346   .     S
C210   C213    1.537   .     S
C213   F214    1.312   .     S
C213   F215    1.292   .     S
C213   F216    1.294   .     S
Ag217  N219    2.200   .     S
Ag217  Ag577   3.225   .     S
Ag217  N328    2.199   .     S
O218   C266    1.216   1_565 S
N219   C221    1.348   .     A
N219   C228    1.344   .     A
N220   C231    1.339   .     A
N220   C238    1.348   .     A
N220   Ag433   2.199   .     S
C221   H222    0.950   .     S
C221   C223    1.391   .     A
C223   C296    1.396   .     A
C223   C230    1.497   .     S
C224   C259    1.396   .     A
C224   H225    0.950   .     S
C224   C226    1.379   .     A
C226   H299    0.950   .     S
C226   C264    1.389   .     A
H227   C262    0.950   .     S
C228   C298    1.389   .     A
C228   H229    0.949   .     S
C230   O290    1.216   .     D
C230   C233    1.495   1_655 S
C231   H232    0.950   .     S
C231   C233    1.395   .     A
C233   C230    1.495   1_455 S
C233   C306    1.395   1_455 S
C234   C269    1.395   .     A
C234   H235    0.952   .     S
C234   C272    1.381   .     A
C236   H309    0.951   .     S
C236   C238    1.381   .     A
C236   C306    1.381   1_455 S
H237   C272    0.951   .     S
C238   H239    0.949   .     S
C240   O277    1.237   .     A
C240   O242    1.229   .     A
C240   C279    1.563   .     S
O241   C312    1.237   .     A
C243   C312    1.563   .     S
C243   F244    1.387   .     S
C243   F317    1.366   .     S
C243   C246    1.510   .     S
F245   C279    1.366   .     S
C246   F247    1.392   .     S
C246   F248    1.346   .     S
C246   C249    1.537   .     S
C249   F250    1.312   .     S
C249   F251    1.292   .     S
C249   F252    1.294   .     S
Ag253  N364    2.199   .     S
Ag253  N255    2.200   1_545 S
Ag253  Ag613   3.225   1_546 S
O254   C302    1.216   .     D
N255   C264    1.344   .     A
N255   Ag253   2.200   1_565 S
N255   C257    1.348   1_565 S
N256   C267    1.339   .     A
N256   C274    1.348   .     A
N256   Ag469   2.199   .     S
C257   H258    0.950   .     S
C257   N255    1.348   1_545 S
C257   C259    1.391   1_545 S
C259   C257    1.391   1_565 S
C259   C266    1.497   1_565 A
C260   C295    1.396   .     A
C260   H261    0.950   .     S
C260   C262    1.379   .     A
C262   C300    1.389   .     A
H263   C298    0.950   .     S
C264   H265    0.949   .     S
C266   C269    1.495   .     S
C266   O218    1.216   1_545 S
C266   C259    1.497   1_545 A
C267   H268    0.950   .     S
C267   C269    1.395   .     A
C270   C305    1.395   .     A
C270   H271    0.952   .     S
C270   C308    1.381   .     A
C272   C274    1.381   .     A
H273   C308    0.951   .     S
C274   H275    0.949   .     S
C276   O313    1.237   .     A
C276   O278    1.229   .     A
C276   C315    1.563   .     S
C279   F280    1.387   .     S
C279   C282    1.510   .     S
F281   C315    1.366   .     S
C282   F283    1.392   .     S
C282   F284    1.346   .     S
C282   C285    1.537   .     S
C285   F286    1.312   .     S
C285   F287    1.292   .     S
C285   F288    1.294   .     S
Ag289  N291    2.200   .     S
Ag289  Ag541   3.225   .     S
Ag289  N400    2.199   .     S
N291   C293    1.348   .     A
N291   C300    1.344   1_554 S
N292   C303    1.339   .     A
N292   Ag505   2.199   .     S
N292   C310    1.348   1_554 A
C293   H294    0.950   .     S
C293   C295    1.391   1_554 S
C295   C302    1.497   .     S
C295   C293    1.391   1_556 S
C296   H297    0.950   .     S
C296   C298    1.379   .     A
C300   H301    0.949   .     S
C300   N291    1.344   1_556 S
C302   C305    1.495   .     S
C303   H304    0.950   .     S
C303   C305    1.395   1_554 S
C305   C303    1.395   1_556 S
C306   H307    0.952   .     S
C306   C233    1.395   1_655 S
C306   C236    1.381   1_655 S
C308   C310    1.381   .     A
C310   H311    0.949   .     S
C310   N292    1.348   1_556 A
C312   O314    1.229   .     A
C315   F316    1.387   .     S
C315   C318    1.510   .     S
C318   F319    1.392   .     S
C318   F320    1.346   .     S
C318   C321    1.537   .     S
C321   F322    1.312   .     S
C321   F323    1.292   .     S
C321   F324    1.294   .     S
Ag325  N327    2.200   .     S
O326   C410    1.216   1_655 A
N327   C329    1.348   .     A
N327   C336    1.344   .     A
N328   C339    1.339   .     A
N328   C346    1.348   .     A
C329   H330    0.950   .     S
C329   C331    1.391   .     A
C331   C368    1.396   .     A
C331   C338    1.497   .     S
C332   C403    1.396   .     A
C332   H333    0.950   .     S
C332   C334    1.379   .     A
C334   H371    0.950   .     S
C334   C408    1.389   .     A
H335   C406    0.950   .     S
C336   C370    1.389   .     A
C336   H337    0.949   .     S
C338   O362    1.216   .     D
C338   C341    1.495   .     S
C339   H340    0.950   .     S
C339   C341    1.395   .     A
C341   C378    1.395   .     A
C342   C413    1.395   .     A
C342   H343    0.952   .     S
C342   C416    1.381   .     A
C344   C378    1.381   .     A
C344   H381    0.951   .     S
C344   C346    1.381   .     A
H345   C416    0.951   .     S
C346   H347    0.949   .     S
C348   O421    1.237   .     A
C348   O350    1.229   .     A
C348   C423    1.563   .     S
O349   C384    1.237   .     A
C351   C384    1.563   .     S
C351   F352    1.387   .     S
C351   F389    1.366   .     S
C351   C354    1.510   .     S
F353   C423    1.366   .     S
C354   F355    1.392   .     S
C354   F356    1.346   .     S
C354   C357    1.537   .     S
C357   F358    1.312   .     S
C357   F359    1.292   .     S
C357   F360    1.294   .     S
Ag361  N363    2.200   .     S
N363   C365    1.348   .     A
N363   C372    1.344   1_556 S
N364   C375    1.339   .     A
N364   C382    1.348   1_556 A
C365   H366    0.950   .     S
C365   C367    1.391   1_556 A
C367   C404    1.396   .     A
C367   C374    1.497   .     S
C367   C365    1.391   1_554 A
C368   H369    0.950   .     S
C368   C370    1.379   .     A
C370   H407    0.950   .     S
C372   C406    1.389   .     A
C372   H373    0.949   .     S
C372   N363    1.344   1_554 S
C374   C377    1.495   .     S
C374   O398    1.216   1_545 A
C375   H376    0.950   .     S
C375   C377    1.395   1_556 A
C377   C414    1.395   .     A
C377   C375    1.395   1_554 A
C378   H379    0.952   .     S
C380   C414    1.381   .     A
C380   H417    0.951   .     S
C380   C382    1.381   .     A
C382   H383    0.949   .     S
C382   N364    1.348   1_554 A
C384   O386    1.229   .     A
O385   C420    1.237   .     A
C387   C420    1.563   .     S
C387   F388    1.387   .     S
C387   F425    1.366   .     S
C387   C390    1.510   .     S
C390   F391    1.392   .     S
C390   F392    1.346   .     S
C390   C393    1.537   .     S
C393   F394    1.312   .     S
C393   F395    1.292   .     S
C393   F396    1.294   .     S
Ag397  Ag37    3.225   1_454 S
Ag397  N399    2.200   1_455 S
O398   C374    1.216   1_565 A
N399   C408    1.344   .     A
N399   Ag397   2.200   1_655 S
N399   C401    1.348   1_655 S
N400   C411    1.339   .     A
N400   C418    1.348   .     A
C401   H402    0.950   .     S
C401   N399    1.348   1_455 S
C401   C403    1.391   1_455 S
C403   C401    1.391   1_655 S
C403   C410    1.497   1_655 S
C404   H405    0.950   .     S
C404   C406    1.379   .     A
C408   H409    0.949   .     S
C410   C413    1.495   .     S
C410   O326    1.216   1_455 A
C410   C403    1.497   1_455 S
C411   H412    0.950   .     S
C411   C413    1.395   .     A
C414   H415    0.952   .     S
C416   C418    1.381   .     A
C418   H419    0.949   .     S
C420   O422    1.229   .     A
C423   F424    1.387   .     S
C423   C426    1.510   .     S
C426   F427    1.392   .     S
C426   F428    1.346   .     S
C426   C429    1.537   .     S
C429   F430    1.312   .     S
C429   F431    1.292   .     S
C429   F432    1.294   .     S
Ag433  N435    2.200   .     S
O434   C518    1.216   .     D
N435   C437    1.348   .     A
N435   C444    1.344   .     A
N436   C447    1.339   .     A
N436   C454    1.348   .     A
C437   H438    0.950   .     S
C437   C439    1.391   .     A
C439   C476    1.396   .     A
C439   C446    1.497   .     S
C440   C511    1.396   .     A
C440   H441    0.950   .     S
C440   C442    1.379   .     A
C442   H479    0.950   .     S
C442   C516    1.389   .     A
H443   C514    0.950   .     S
C444   C478    1.389   .     A
C444   H445    0.949   .     S
C446   O470    1.216   .     D
C446   C449    1.495   1_565 A
C447   H448    0.950   .     S
C447   C449    1.395   .     A
C449   C446    1.495   1_545 A
C449   C486    1.395   1_545 S
C450   C521    1.395   .     A
C450   H451    0.952   .     S
C450   C524    1.381   .     A
C452   H489    0.951   .     S
C452   C454    1.381   .     A
C452   C486    1.381   1_545 S
H453   C524    0.951   .     S
C454   H455    0.949   .     S
C456   O529    1.237   .     A
C456   O458    1.229   .     A
C456   C531    1.563   .     S
O457   C492    1.237   .     A
C459   C492    1.563   .     S
C459   F460    1.387   .     S
C459   F497    1.366   .     S
C459   C462    1.510   .     S
F461   C531    1.366   .     S
C462   F463    1.392   .     S
C462   F464    1.346   .     S
C462   C465    1.537   .     S
C465   F466    1.312   .     S
C465   F467    1.292   .     S
C465   F468    1.294   .     S
Ag469  N471    2.200   .     S
N471   C473    1.348   .     A
N471   C480    1.344   1_556 S
N472   C483    1.339   .     A
N472   C490    1.348   1_556 S
C473   H474    0.950   .     S
C473   C475    1.391   1_556 A
C475   C512    1.396   .     A
C475   C482    1.497   .     S
C475   C473    1.391   1_554 A
C476   H477    0.950   .     S
C476   C478    1.379   .     A
C478   H515    0.950   .     S
C480   C514    1.389   .     A
C480   H481    0.949   .     S
C480   N471    1.344   1_554 S
C482   C485    1.495   .     S
C482   O506    1.216   1_655 S
C483   H484    0.950   .     S
C483   C485    1.395   1_556 S
C485   C522    1.395   .     A
C485   C483    1.395   1_554 S
C486   H487    0.952   .     S
C486   C449    1.395   1_565 S
C486   C452    1.381   1_565 S
C488   C522    1.381   .     A
C488   H525    0.951   .     S
C488   C490    1.381   .     A
C490   H491    0.949   .     S
C490   N472    1.348   1_554 S
C492   O494    1.229   .     A
O493   C528    1.237   .     A
C495   C528    1.563   .     S
C495   F496    1.387   .     S
C495   F533    1.366   .     S
C495   C498    1.510   .     S
C498   F499    1.392   .     S
C498   F500    1.346   .     S
C498   C501    1.537   .     S
C501   F502    1.312   .     S
C501   F503    1.292   .     S
C501   F504    1.294   .     S
Ag505  N507    2.200   .     S
Ag505  Ag145   3.225   1_554 A
O506   C482    1.216   1_455 S
N507   C509    1.348   .     A
N507   C516    1.344   .     A
N508   C519    1.339   .     A
N508   C526    1.348   .     A
C509   H510    0.950   .     S
C509   C511    1.391   .     A
C511   C518    1.497   .     S
C512   H513    0.950   .     S
C512   C514    1.379   .     A
C516   H517    0.949   .     S
C518   C521    1.495   .     S
C519   H520    0.950   .     S
C519   C521    1.395   .     A
C522   H523    0.952   .     S
C524   C526    1.381   .     A
C526   H527    0.949   .     S
C528   O530    1.229   .     A
C531   F532    1.387   .     S
C531   C534    1.510   .     S
C534   F535    1.392   .     S
C534   F536    1.346   .     S
C534   C537    1.537   .     S
C537   F538    1.312   .     S
C537   F539    1.292   .     S
C537   F540    1.294   .     S
Ag541  N543    2.200   .     S
O542   C626    1.216   1_545 S
N543   C545    1.348   .     A
N543   C552    1.344   .     A
N544   C555    1.339   .     A
N544   C562    1.348   .     A
C545   H546    0.950   .     S
C545   C547    1.391   .     A
C547   C584    1.396   .     A
C547   C554    1.497   .     S
C548   C619    1.396   .     A
C548   H549    0.950   .     S
C548   C550    1.379   .     A
C550   H587    0.950   .     S
C550   C624    1.389   .     A
H551   C622    0.950   .     S
C552   C586    1.389   .     A
C552   H553    0.949   .     S
C554   O578    1.216   .     D
C554   C557    1.495   1_455 S
C555   H556    0.950   .     S
C555   C557    1.395   .     A
C557   C554    1.495   1_655 S
C557   C594    1.395   1_655 S
C558   C629    1.395   .     A
C558   H559    0.952   .     S
C558   C632    1.381   .     A
C560   H597    0.951   .     S
C560   C562    1.381   .     A
C560   C594    1.381   1_655 S
H561   C632    0.951   .     S
C562   H563    0.949   .     S
C564   O637    1.237   .     A
C564   O566    1.229   .     A
C564   C639    1.563   .     S
O565   C600    1.237   .     A
C567   C600    1.563   .     S
C567   F568    1.387   .     S
C567   F605    1.366   .     S
C567   C570    1.510   .     S
F569   C639    1.366   .     S
C570   F571    1.392   .     S
C570   F572    1.346   .     S
C570   C573    1.537   .     S
C573   F574    1.312   .     S
C573   F575    1.292   .     S
C573   F576    1.294   .     S
Ag577  N579    2.200   .     S
N579   C581    1.348   .     A
N579   C588    1.344   1_556 S
N580   C591    1.339   .     A
N580   C598    1.348   1_556 S
C581   H582    0.950   .     S
C581   C583    1.391   1_556 S
C583   C620    1.396   .     A
C583   C590    1.497   .     S
C583   C581    1.391   1_554 S
C584   H585    0.950   .     S
C584   C586    1.379   .     A
C586   H623    0.950   .     S
C588   C622    1.389   .     A
C588   H589    0.949   .     S
C588   N579    1.344   1_554 S
C590   O614    1.216   .     D
C590   C593    1.495   .     S
C591   H592    0.950   .     S
C591   C593    1.395   1_556 A
C593   C630    1.395   .     A
C593   C591    1.395   1_554 A
C594   H595    0.952   .     S
C594   C557    1.395   1_455 S
C594   C560    1.381   1_455 S
C596   C630    1.381   .     A
C596   H633    0.951   .     S
C596   C598    1.381   .     A
C598   H599    0.949   .     S
C598   N580    1.348   1_554 S
C600   O602    1.229   .     A
O601   C636    1.237   .     A
C603   C636    1.563   .     S
C603   F604    1.387   .     S
C603   F641    1.366   .     S
C603   C606    1.510   .     S
C606   F607    1.392   .     S
C606   F608    1.346   .     S
C606   C609    1.537   .     S
C609   F610    1.312   .     S
C609   F611    1.292   .     S
C609   F612    1.294   .     S
Ag613  Ag253   3.225   1_564 S
Ag613  N615    2.200   1_565 A
N615   C624    1.344   .     A
N615   Ag613   2.200   1_545 A
N615   C617    1.348   1_545 A
N616   C627    1.339   .     A
N616   C634    1.348   .     A
C617   H618    0.950   .     S
C617   N615    1.348   1_565 A
C617   C619    1.391   1_565 A
C619   C617    1.391   1_545 A
C619   C626    1.497   1_545 A
C620   H621    0.950   .     S
C620   C622    1.379   .     A
C624   H625    0.949   .     S
C626   C629    1.495   .     S
C626   O542    1.216   1_565 S
C626   C619    1.497   1_565 A
C627   H628    0.950   .     S
C627   C629    1.395   .     A
C630   H631    0.952   .     S
C632   C634    1.381   .     A
C634   H635    0.949   .     S
C636   O638    1.229   .     A
C639   F640    1.387   .     S
C639   C642    1.510   .     S
C642   F643    1.392   .     S
C642   F644    1.346   .     S
C642   C645    1.537   .     S
C645   F646    1.312   .     S
C645   F647    1.292   .     S
C645   F648    1.294   .     S
