data_GITVIP_clean
_audit_creation_date              2014-07-02
_audit_creation_method            'Materials Studio'
_symmetry_space_group_name_H-M    'P1'
_symmetry_Int_Tables_number       1
_symmetry_cell_setting            triclinic
loop_
_symmetry_equiv_pos_as_xyz
  x,y,z
_cell_length_a                    28.5539
_cell_length_b                    28.5539
_cell_length_c                    28.5539
_cell_angle_alpha                 90.0000
_cell_angle_beta                  90.0000
_cell_angle_gamma                 90.0000
loop_
_atom_site_label
_atom_site_type_symbol
_atom_site_fract_x
_atom_site_fract_y
_atom_site_fract_z
_atom_site_U_iso_or_equiv
_atom_site_adp_type
_atom_site_occupancy
Zn1    Zn    0.60461   0.89593   0.74815   0.01267  Uiso   1.00
Zn2    Zn    0.39539   0.10407   0.74815   0.01267  Uiso   1.00
Zn3    Zn    0.39539   0.89593   0.25185   0.01267  Uiso   1.00
Zn4    Zn    0.60461   0.10407   0.25185   0.01267  Uiso   1.00
Zn5    Zn    0.74815   0.60461   0.89593   0.01267  Uiso   1.00
Zn6    Zn    0.74815   0.39539   0.10407   0.01267  Uiso   1.00
Zn7    Zn    0.25185   0.39539   0.89593   0.01267  Uiso   1.00
Zn8    Zn    0.25185   0.60461   0.10407   0.01267  Uiso   1.00
Zn9    Zn    0.89593   0.74815   0.60461   0.01267  Uiso   1.00
Zn10   Zn    0.10407   0.74815   0.39539   0.01267  Uiso   1.00
Zn11   Zn    0.89593   0.25185   0.39539   0.01267  Uiso   1.00
Zn12   Zn    0.10407   0.25185   0.60461   0.01267  Uiso   1.00
Zn13   Zn    0.89593   0.60461   0.25185   0.01267  Uiso   1.00
Zn14   Zn    0.10407   0.39539   0.25185   0.01267  Uiso   1.00
Zn15   Zn    0.89593   0.39539   0.74815   0.01267  Uiso   1.00
Zn16   Zn    0.10407   0.60461   0.74815   0.01267  Uiso   1.00
Zn17   Zn    0.60461   0.74815   0.10407   0.01267  Uiso   1.00
Zn18   Zn    0.39539   0.74815   0.89593   0.01267  Uiso   1.00
Zn19   Zn    0.39539   0.25185   0.10407   0.01267  Uiso   1.00
Zn20   Zn    0.60461   0.25185   0.89593   0.01267  Uiso   1.00
Zn21   Zn    0.74815   0.89593   0.39539   0.01267  Uiso   1.00
Zn22   Zn    0.74815   0.10407   0.60461   0.01267  Uiso   1.00
Zn23   Zn    0.25185   0.89593   0.60461   0.01267  Uiso   1.00
Zn24   Zn    0.25185   0.10407   0.39539   0.01267  Uiso   1.00
Zn25   Zn    0.39539   0.10407   0.25185   0.01267  Uiso   1.00
Zn26   Zn    0.60461   0.89593   0.25185   0.01267  Uiso   1.00
Zn27   Zn    0.60461   0.10407   0.74815   0.01267  Uiso   1.00
Zn28   Zn    0.39539   0.89593   0.74815   0.01267  Uiso   1.00
Zn29   Zn    0.25185   0.39539   0.10407   0.01267  Uiso   1.00
Zn30   Zn    0.25185   0.60461   0.89593   0.01267  Uiso   1.00
Zn31   Zn    0.74815   0.60461   0.10407   0.01267  Uiso   1.00
Zn32   Zn    0.74815   0.39539   0.89593   0.01267  Uiso   1.00
Zn33   Zn    0.10407   0.25185   0.39539   0.01267  Uiso   1.00
Zn34   Zn    0.89593   0.25185   0.60461   0.01267  Uiso   1.00
Zn35   Zn    0.10407   0.74815   0.60461   0.01267  Uiso   1.00
Zn36   Zn    0.89593   0.74815   0.39539   0.01267  Uiso   1.00
Zn37   Zn    0.10407   0.39539   0.74815   0.01267  Uiso   1.00
Zn38   Zn    0.89593   0.60461   0.74815   0.01267  Uiso   1.00
Zn39   Zn    0.10407   0.60461   0.25185   0.01267  Uiso   1.00
Zn40   Zn    0.89593   0.39539   0.25185   0.01267  Uiso   1.00
Zn41   Zn    0.39539   0.25185   0.89593   0.01267  Uiso   1.00
Zn42   Zn    0.60461   0.25185   0.10407   0.01267  Uiso   1.00
Zn43   Zn    0.60461   0.74815   0.89593   0.01267  Uiso   1.00
Zn44   Zn    0.39539   0.74815   0.10407   0.01267  Uiso   1.00
Zn45   Zn    0.25185   0.10407   0.60461   0.01267  Uiso   1.00
Zn46   Zn    0.25185   0.89593   0.39539   0.01267  Uiso   1.00
Zn47   Zn    0.74815   0.10407   0.39539   0.01267  Uiso   1.00
Zn48   Zn    0.74815   0.89593   0.60461   0.01267  Uiso   1.00
H1     H     0.57900   0.00000   0.72670   0.01267  Uiso   1.00
H2     H     0.42100   0.00000   0.72670   0.01267  Uiso   1.00
H3     H     0.42100   0.00000   0.27330   0.01267  Uiso   1.00
H4     H     0.57900   0.00000   0.27330   0.01267  Uiso   1.00
H5     H     0.72670   0.57900   0.00000   0.01267  Uiso   1.00
H6     H     0.72670   0.42100   0.00000   0.01267  Uiso   1.00
H7     H     0.27330   0.42100   0.00000   0.01267  Uiso   1.00
H8     H     0.27330   0.57900   0.00000   0.01267  Uiso   1.00
H9     H     0.00000   0.72670   0.57900   0.01267  Uiso   1.00
H10    H     0.00000   0.72670   0.42100   0.01267  Uiso   1.00
H11    H     0.00000   0.27330   0.42100   0.01267  Uiso   1.00
H12    H     0.00000   0.27330   0.57900   0.01267  Uiso   1.00
H13    H     0.00000   0.57900   0.27330   0.01267  Uiso   1.00
H14    H     0.00000   0.42100   0.27330   0.01267  Uiso   1.00
H15    H     0.00000   0.42100   0.72670   0.01267  Uiso   1.00
H16    H     0.00000   0.57900   0.72670   0.01267  Uiso   1.00
H17    H     0.57900   0.72670   0.00000   0.01267  Uiso   1.00
H18    H     0.42100   0.72670   0.00000   0.01267  Uiso   1.00
H19    H     0.42100   0.27330   0.00000   0.01267  Uiso   1.00
H20    H     0.57900   0.27330   0.00000   0.01267  Uiso   1.00
H21    H     0.72670   0.00000   0.42100   0.01267  Uiso   1.00
H22    H     0.72670   0.00000   0.57900   0.01267  Uiso   1.00
H23    H     0.27330   0.00000   0.57900   0.01267  Uiso   1.00
H24    H     0.27330   0.00000   0.42100   0.01267  Uiso   1.00
H25    H     0.50000   0.87810   0.78370   0.01267  Uiso   1.00
H26    H     0.50000   0.12190   0.78370   0.01267  Uiso   1.00
H27    H     0.50000   0.87810   0.21630   0.01267  Uiso   1.00
H28    H     0.50000   0.12190   0.21630   0.01267  Uiso   1.00
H29    H     0.78370   0.50000   0.87810   0.01267  Uiso   1.00
H30    H     0.78370   0.50000   0.12190   0.01267  Uiso   1.00
H31    H     0.21630   0.50000   0.87810   0.01267  Uiso   1.00
H32    H     0.21630   0.50000   0.12190   0.01267  Uiso   1.00
H33    H     0.87810   0.78370   0.50000   0.01267  Uiso   1.00
H34    H     0.12190   0.78370   0.50000   0.01267  Uiso   1.00
H35    H     0.87810   0.21630   0.50000   0.01267  Uiso   1.00
H36    H     0.12190   0.21630   0.50000   0.01267  Uiso   1.00
H37    H     0.87810   0.50000   0.21630   0.01267  Uiso   1.00
H38    H     0.12190   0.50000   0.21630   0.01267  Uiso   1.00
H39    H     0.87810   0.50000   0.78370   0.01267  Uiso   1.00
H40    H     0.12190   0.50000   0.78370   0.01267  Uiso   1.00
H41    H     0.50000   0.78370   0.12190   0.01267  Uiso   1.00
H42    H     0.50000   0.78370   0.87810   0.01267  Uiso   1.00
H43    H     0.50000   0.21630   0.12190   0.01267  Uiso   1.00
H44    H     0.50000   0.21630   0.87810   0.01267  Uiso   1.00
H45    H     0.78370   0.87810   0.50000   0.01267  Uiso   1.00
H46    H     0.78370   0.12190   0.50000   0.01267  Uiso   1.00
H47    H     0.21630   0.87810   0.50000   0.01267  Uiso   1.00
H48    H     0.21630   0.12190   0.50000   0.01267  Uiso   1.00
H49    H     0.69420   0.91950   0.69420   0.01267  Uiso   1.00
H50    H     0.30580   0.08050   0.69420   0.01267  Uiso   1.00
H51    H     0.30580   0.91950   0.30580   0.01267  Uiso   1.00
H52    H     0.69420   0.08050   0.30580   0.01267  Uiso   1.00
H53    H     0.69420   0.69420   0.91950   0.01267  Uiso   1.00
H54    H     0.69420   0.30580   0.08050   0.01267  Uiso   1.00
H55    H     0.30580   0.30580   0.91950   0.01267  Uiso   1.00
H56    H     0.30580   0.69420   0.08050   0.01267  Uiso   1.00
H57    H     0.91950   0.69420   0.69420   0.01267  Uiso   1.00
H58    H     0.08050   0.69420   0.30580   0.01267  Uiso   1.00
H59    H     0.91950   0.30580   0.30580   0.01267  Uiso   1.00
H60    H     0.08050   0.30580   0.69420   0.01267  Uiso   1.00
H61    H     0.91950   0.69420   0.30580   0.01267  Uiso   1.00
H62    H     0.08050   0.30580   0.30580   0.01267  Uiso   1.00
H63    H     0.91950   0.30580   0.69420   0.01267  Uiso   1.00
H64    H     0.08050   0.69420   0.69420   0.01267  Uiso   1.00
H65    H     0.69420   0.69420   0.08050   0.01267  Uiso   1.00
H66    H     0.30580   0.69420   0.91950   0.01267  Uiso   1.00
H67    H     0.30580   0.30580   0.08050   0.01267  Uiso   1.00
H68    H     0.69420   0.30580   0.91950   0.01267  Uiso   1.00
H69    H     0.69420   0.91950   0.30580   0.01267  Uiso   1.00
H70    H     0.69420   0.08050   0.69420   0.01267  Uiso   1.00
H71    H     0.30580   0.91950   0.69420   0.01267  Uiso   1.00
H72    H     0.30580   0.08050   0.30580   0.01267  Uiso   1.00
H73    H     0.61660   0.79970   0.79970   0.01267  Uiso   1.00
H74    H     0.38340   0.20030   0.79970   0.01267  Uiso   1.00
H75    H     0.38340   0.79970   0.20030   0.01267  Uiso   1.00
H76    H     0.61660   0.20030   0.20030   0.01267  Uiso   1.00
H77    H     0.79970   0.61660   0.79970   0.01267  Uiso   1.00
H78    H     0.79970   0.38340   0.20030   0.01267  Uiso   1.00
H79    H     0.20030   0.38340   0.79970   0.01267  Uiso   1.00
H80    H     0.20030   0.61660   0.20030   0.01267  Uiso   1.00
H81    H     0.79970   0.79970   0.61660   0.01267  Uiso   1.00
H82    H     0.20030   0.79970   0.38340   0.01267  Uiso   1.00
H83    H     0.79970   0.20030   0.38340   0.01267  Uiso   1.00
H84    H     0.20030   0.20030   0.61660   0.01267  Uiso   1.00
H85    H     0.79970   0.61660   0.20030   0.01267  Uiso   1.00
H86    H     0.20030   0.38340   0.20030   0.01267  Uiso   1.00
H87    H     0.79970   0.38340   0.79970   0.01267  Uiso   1.00
H88    H     0.20030   0.61660   0.79970   0.01267  Uiso   1.00
H89    H     0.61660   0.79970   0.20030   0.01267  Uiso   1.00
H90    H     0.38340   0.79970   0.79970   0.01267  Uiso   1.00
H91    H     0.38340   0.20030   0.20030   0.01267  Uiso   1.00
H92    H     0.61660   0.20030   0.79970   0.01267  Uiso   1.00
H93    H     0.79970   0.79970   0.38340   0.01267  Uiso   1.00
H94    H     0.79970   0.20030   0.61660   0.01267  Uiso   1.00
H95    H     0.20030   0.79970   0.61660   0.01267  Uiso   1.00
H96    H     0.20030   0.20030   0.38340   0.01267  Uiso   1.00
C1     C     0.66670   0.97670   0.77910   0.01267  Uiso   1.00
C2     C     0.52350   0.91620   0.68380   0.01267  Uiso   1.00
C3     C     0.64430   0.82770   0.67820   0.01267  Uiso   1.00
C4     C     0.58290   0.88300   0.85140   0.01267  Uiso   1.00
C5     C     0.33330   0.02330   0.77910   0.01267  Uiso   1.00
C6     C     0.47650   0.08380   0.68380   0.01267  Uiso   1.00
C7     C     0.35570   0.17230   0.67820   0.01267  Uiso   1.00
C8     C     0.41710   0.11700   0.85140   0.01267  Uiso   1.00
C9     C     0.33330   0.97670   0.22090   0.01267  Uiso   1.00
C10    C     0.47650   0.91620   0.31620   0.01267  Uiso   1.00
C11    C     0.35570   0.82770   0.32180   0.01267  Uiso   1.00
C12    C     0.41710   0.88300   0.14860   0.01267  Uiso   1.00
C13    C     0.66670   0.02330   0.22090   0.01267  Uiso   1.00
C14    C     0.52350   0.08380   0.31620   0.01267  Uiso   1.00
C15    C     0.64430   0.17230   0.32180   0.01267  Uiso   1.00
C16    C     0.58290   0.11700   0.14860   0.01267  Uiso   1.00
C17    C     0.77910   0.66670   0.97670   0.01267  Uiso   1.00
C18    C     0.68380   0.52350   0.91620   0.01267  Uiso   1.00
C19    C     0.67820   0.64430   0.82770   0.01267  Uiso   1.00
C20    C     0.85140   0.58290   0.88300   0.01267  Uiso   1.00
C21    C     0.77910   0.33330   0.02330   0.01267  Uiso   1.00
C22    C     0.68380   0.47650   0.08380   0.01267  Uiso   1.00
C23    C     0.67820   0.35570   0.17230   0.01267  Uiso   1.00
C24    C     0.85140   0.41710   0.11700   0.01267  Uiso   1.00
C25    C     0.22090   0.33330   0.97670   0.01267  Uiso   1.00
C26    C     0.31620   0.47650   0.91620   0.01267  Uiso   1.00
C27    C     0.32180   0.35570   0.82770   0.01267  Uiso   1.00
C28    C     0.14860   0.41710   0.88300   0.01267  Uiso   1.00
C29    C     0.22090   0.66670   0.02330   0.01267  Uiso   1.00
C30    C     0.31620   0.52350   0.08380   0.01267  Uiso   1.00
C31    C     0.32180   0.64430   0.17230   0.01267  Uiso   1.00
C32    C     0.14860   0.58290   0.11700   0.01267  Uiso   1.00
C33    C     0.97670   0.77910   0.66670   0.01267  Uiso   1.00
C34    C     0.91620   0.68380   0.52350   0.01267  Uiso   1.00
C35    C     0.82770   0.67820   0.64430   0.01267  Uiso   1.00
C36    C     0.88300   0.85140   0.58290   0.01267  Uiso   1.00
C37    C     0.02330   0.77910   0.33330   0.01267  Uiso   1.00
C38    C     0.08380   0.68380   0.47650   0.01267  Uiso   1.00
C39    C     0.17230   0.67820   0.35570   0.01267  Uiso   1.00
C40    C     0.11700   0.85140   0.41710   0.01267  Uiso   1.00
C41    C     0.97670   0.22090   0.33330   0.01267  Uiso   1.00
C42    C     0.91620   0.31620   0.47650   0.01267  Uiso   1.00
C43    C     0.82770   0.32180   0.35570   0.01267  Uiso   1.00
C44    C     0.88300   0.14860   0.41710   0.01267  Uiso   1.00
C45    C     0.02330   0.22090   0.66670   0.01267  Uiso   1.00
C46    C     0.08380   0.31620   0.52350   0.01267  Uiso   1.00
C47    C     0.17230   0.32180   0.64430   0.01267  Uiso   1.00
C48    C     0.11700   0.14860   0.58290   0.01267  Uiso   1.00
C49    C     0.97670   0.66670   0.22090   0.01267  Uiso   1.00
C50    C     0.91620   0.52350   0.31620   0.01267  Uiso   1.00
C51    C     0.82770   0.64430   0.32180   0.01267  Uiso   1.00
C52    C     0.88300   0.58290   0.14860   0.01267  Uiso   1.00
C53    C     0.02330   0.33330   0.22090   0.01267  Uiso   1.00
C54    C     0.08380   0.47650   0.31620   0.01267  Uiso   1.00
C55    C     0.17230   0.35570   0.32180   0.01267  Uiso   1.00
C56    C     0.11700   0.41710   0.14860   0.01267  Uiso   1.00
C57    C     0.97670   0.33330   0.77910   0.01267  Uiso   1.00
C58    C     0.91620   0.47650   0.68380   0.01267  Uiso   1.00
C59    C     0.82770   0.35570   0.67820   0.01267  Uiso   1.00
C60    C     0.88300   0.41710   0.85140   0.01267  Uiso   1.00
C61    C     0.02330   0.66670   0.77910   0.01267  Uiso   1.00
C62    C     0.08380   0.52350   0.68380   0.01267  Uiso   1.00
C63    C     0.17230   0.64430   0.67820   0.01267  Uiso   1.00
C64    C     0.11700   0.58290   0.85140   0.01267  Uiso   1.00
C65    C     0.66670   0.77910   0.02330   0.01267  Uiso   1.00
C66    C     0.52350   0.68380   0.08380   0.01267  Uiso   1.00
C67    C     0.64430   0.67820   0.17230   0.01267  Uiso   1.00
C68    C     0.58290   0.85140   0.11700   0.01267  Uiso   1.00
C69    C     0.33330   0.77910   0.97670   0.01267  Uiso   1.00
C70    C     0.47650   0.68380   0.91620   0.01267  Uiso   1.00
C71    C     0.35570   0.67820   0.82770   0.01267  Uiso   1.00
C72    C     0.41710   0.85140   0.88300   0.01267  Uiso   1.00
C73    C     0.33330   0.22090   0.02330   0.01267  Uiso   1.00
C74    C     0.47650   0.31620   0.08380   0.01267  Uiso   1.00
C75    C     0.35570   0.32180   0.17230   0.01267  Uiso   1.00
C76    C     0.41710   0.14860   0.11700   0.01267  Uiso   1.00
C77    C     0.66670   0.22090   0.97670   0.01267  Uiso   1.00
C78    C     0.52350   0.31620   0.91620   0.01267  Uiso   1.00
C79    C     0.64430   0.32180   0.82770   0.01267  Uiso   1.00
C80    C     0.58290   0.14860   0.88300   0.01267  Uiso   1.00
C81    C     0.77910   0.97670   0.33330   0.01267  Uiso   1.00
C82    C     0.68380   0.91620   0.47650   0.01267  Uiso   1.00
C83    C     0.67820   0.82770   0.35570   0.01267  Uiso   1.00
C84    C     0.85140   0.88300   0.41710   0.01267  Uiso   1.00
C85    C     0.77910   0.02330   0.66670   0.01267  Uiso   1.00
C86    C     0.68380   0.08380   0.52350   0.01267  Uiso   1.00
C87    C     0.67820   0.17230   0.64430   0.01267  Uiso   1.00
C88    C     0.85140   0.11700   0.58290   0.01267  Uiso   1.00
C89    C     0.22090   0.97670   0.66670   0.01267  Uiso   1.00
C90    C     0.31620   0.91620   0.52350   0.01267  Uiso   1.00
C91    C     0.32180   0.82770   0.64430   0.01267  Uiso   1.00
C92    C     0.14860   0.88300   0.58290   0.01267  Uiso   1.00
C93    C     0.22090   0.02330   0.33330   0.01267  Uiso   1.00
C94    C     0.31620   0.08380   0.47650   0.01267  Uiso   1.00
C95    C     0.32180   0.17230   0.35570   0.01267  Uiso   1.00
C96    C     0.14860   0.11700   0.41710   0.01267  Uiso   1.00
C97    C     0.33330   0.02330   0.22090   0.01267  Uiso   1.00
C98    C     0.47650   0.08380   0.31620   0.01267  Uiso   1.00
C99    C     0.35570   0.17230   0.32180   0.01267  Uiso   1.00
C100   C     0.41710   0.11700   0.14860   0.01267  Uiso   1.00
C101   C     0.66670   0.97670   0.22090   0.01267  Uiso   1.00
C102   C     0.52350   0.91620   0.31620   0.01267  Uiso   1.00
C103   C     0.64430   0.82770   0.32180   0.01267  Uiso   1.00
C104   C     0.58290   0.88300   0.14860   0.01267  Uiso   1.00
C105   C     0.66670   0.02330   0.77910   0.01267  Uiso   1.00
C106   C     0.52350   0.08380   0.68380   0.01267  Uiso   1.00
C107   C     0.64430   0.17230   0.67820   0.01267  Uiso   1.00
C108   C     0.58290   0.11700   0.85140   0.01267  Uiso   1.00
C109   C     0.33330   0.97670   0.77910   0.01267  Uiso   1.00
C110   C     0.47650   0.91620   0.68380   0.01267  Uiso   1.00
C111   C     0.35570   0.82770   0.67820   0.01267  Uiso   1.00
C112   C     0.41710   0.88300   0.85140   0.01267  Uiso   1.00
C113   C     0.22090   0.33330   0.02330   0.01267  Uiso   1.00
C114   C     0.31620   0.47650   0.08380   0.01267  Uiso   1.00
C115   C     0.32180   0.35570   0.17230   0.01267  Uiso   1.00
C116   C     0.14860   0.41710   0.11700   0.01267  Uiso   1.00
C117   C     0.22090   0.66670   0.97670   0.01267  Uiso   1.00
C118   C     0.31620   0.52350   0.91620   0.01267  Uiso   1.00
C119   C     0.32180   0.64430   0.82770   0.01267  Uiso   1.00
C120   C     0.14860   0.58290   0.88300   0.01267  Uiso   1.00
C121   C     0.77910   0.66670   0.02330   0.01267  Uiso   1.00
C122   C     0.68380   0.52350   0.08380   0.01267  Uiso   1.00
C123   C     0.67820   0.64430   0.17230   0.01267  Uiso   1.00
C124   C     0.85140   0.58290   0.11700   0.01267  Uiso   1.00
C125   C     0.77910   0.33330   0.97670   0.01267  Uiso   1.00
C126   C     0.68380   0.47650   0.91620   0.01267  Uiso   1.00
C127   C     0.67820   0.35570   0.82770   0.01267  Uiso   1.00
C128   C     0.85140   0.41710   0.88300   0.01267  Uiso   1.00
C129   C     0.02330   0.22090   0.33330   0.01267  Uiso   1.00
C130   C     0.08380   0.31620   0.47650   0.01267  Uiso   1.00
C131   C     0.17230   0.32180   0.35570   0.01267  Uiso   1.00
C132   C     0.11700   0.14860   0.41710   0.01267  Uiso   1.00
C133   C     0.97670   0.22090   0.66670   0.01267  Uiso   1.00
C134   C     0.91620   0.31620   0.52350   0.01267  Uiso   1.00
C135   C     0.82770   0.32180   0.64430   0.01267  Uiso   1.00
C136   C     0.88300   0.14860   0.58290   0.01267  Uiso   1.00
C137   C     0.02330   0.77910   0.66670   0.01267  Uiso   1.00
C138   C     0.08380   0.68380   0.52350   0.01267  Uiso   1.00
C139   C     0.17230   0.67820   0.64430   0.01267  Uiso   1.00
C140   C     0.11700   0.85140   0.58290   0.01267  Uiso   1.00
C141   C     0.97670   0.77910   0.33330   0.01267  Uiso   1.00
C142   C     0.91620   0.68380   0.47650   0.01267  Uiso   1.00
C143   C     0.82770   0.67820   0.35570   0.01267  Uiso   1.00
C144   C     0.88300   0.85140   0.41710   0.01267  Uiso   1.00
C145   C     0.02330   0.33330   0.77910   0.01267  Uiso   1.00
C146   C     0.08380   0.47650   0.68380   0.01267  Uiso   1.00
C147   C     0.17230   0.35570   0.67820   0.01267  Uiso   1.00
C148   C     0.11700   0.41710   0.85140   0.01267  Uiso   1.00
C149   C     0.97670   0.66670   0.77910   0.01267  Uiso   1.00
C150   C     0.91620   0.52350   0.68380   0.01267  Uiso   1.00
C151   C     0.82770   0.64430   0.67820   0.01267  Uiso   1.00
C152   C     0.88300   0.58290   0.85140   0.01267  Uiso   1.00
C153   C     0.02330   0.66670   0.22090   0.01267  Uiso   1.00
C154   C     0.08380   0.52350   0.31620   0.01267  Uiso   1.00
C155   C     0.17230   0.64430   0.32180   0.01267  Uiso   1.00
C156   C     0.11700   0.58290   0.14860   0.01267  Uiso   1.00
C157   C     0.97670   0.33330   0.22090   0.01267  Uiso   1.00
C158   C     0.91620   0.47650   0.31620   0.01267  Uiso   1.00
C159   C     0.82770   0.35570   0.32180   0.01267  Uiso   1.00
C160   C     0.88300   0.41710   0.14860   0.01267  Uiso   1.00
C161   C     0.33330   0.22090   0.97670   0.01267  Uiso   1.00
C162   C     0.47650   0.31620   0.91620   0.01267  Uiso   1.00
C163   C     0.35570   0.32180   0.82770   0.01267  Uiso   1.00
C164   C     0.41710   0.14860   0.88300   0.01267  Uiso   1.00
C165   C     0.66670   0.22090   0.02330   0.01267  Uiso   1.00
C166   C     0.52350   0.31620   0.08380   0.01267  Uiso   1.00
C167   C     0.64430   0.32180   0.17230   0.01267  Uiso   1.00
C168   C     0.58290   0.14860   0.11700   0.01267  Uiso   1.00
C169   C     0.66670   0.77910   0.97670   0.01267  Uiso   1.00
C170   C     0.52350   0.68380   0.91620   0.01267  Uiso   1.00
C171   C     0.64430   0.67820   0.82770   0.01267  Uiso   1.00
C172   C     0.58290   0.85140   0.88300   0.01267  Uiso   1.00
C173   C     0.33330   0.77910   0.02330   0.01267  Uiso   1.00
C174   C     0.47650   0.68380   0.08380   0.01267  Uiso   1.00
C175   C     0.35570   0.67820   0.17230   0.01267  Uiso   1.00
C176   C     0.41710   0.85140   0.11700   0.01267  Uiso   1.00
C177   C     0.22090   0.02330   0.66670   0.01267  Uiso   1.00
C178   C     0.31620   0.08380   0.52350   0.01267  Uiso   1.00
C179   C     0.32180   0.17230   0.64430   0.01267  Uiso   1.00
C180   C     0.14860   0.11700   0.58290   0.01267  Uiso   1.00
C181   C     0.22090   0.97670   0.33330   0.01267  Uiso   1.00
C182   C     0.31620   0.91620   0.47650   0.01267  Uiso   1.00
C183   C     0.32180   0.82770   0.35570   0.01267  Uiso   1.00
C184   C     0.14860   0.88300   0.41710   0.01267  Uiso   1.00
C185   C     0.77910   0.02330   0.33330   0.01267  Uiso   1.00
C186   C     0.68380   0.08380   0.47650   0.01267  Uiso   1.00
C187   C     0.67820   0.17230   0.35570   0.01267  Uiso   1.00
C188   C     0.85140   0.11700   0.41710   0.01267  Uiso   1.00
C189   C     0.77910   0.97670   0.66670   0.01267  Uiso   1.00
C190   C     0.68380   0.91620   0.52350   0.01267  Uiso   1.00
C191   C     0.67820   0.82770   0.64430   0.01267  Uiso   1.00
C192   C     0.85140   0.88300   0.58290   0.01267  Uiso   1.00
C193   C     0.60760   0.00000   0.74370   0.01267  Uiso   1.00
C194   C     0.39240   0.00000   0.74370   0.01267  Uiso   1.00
C195   C     0.39240   0.00000   0.25630   0.01267  Uiso   1.00
C196   C     0.60760   0.00000   0.25630   0.01267  Uiso   1.00
C197   C     0.74370   0.60760   0.00000   0.01267  Uiso   1.00
C198   C     0.74370   0.39240   0.00000   0.01267  Uiso   1.00
C199   C     0.25630   0.39240   0.00000   0.01267  Uiso   1.00
C200   C     0.25630   0.60760   0.00000   0.01267  Uiso   1.00
C201   C     0.00000   0.74370   0.60760   0.01267  Uiso   1.00
C202   C     0.00000   0.74370   0.39240   0.01267  Uiso   1.00
C203   C     0.00000   0.25630   0.39240   0.01267  Uiso   1.00
C204   C     0.00000   0.25630   0.60760   0.01267  Uiso   1.00
C205   C     0.00000   0.60760   0.25630   0.01267  Uiso   1.00
C206   C     0.00000   0.39240   0.25630   0.01267  Uiso   1.00
C207   C     0.00000   0.39240   0.74370   0.01267  Uiso   1.00
C208   C     0.00000   0.60760   0.74370   0.01267  Uiso   1.00
C209   C     0.60760   0.74370   0.00000   0.01267  Uiso   1.00
C210   C     0.39240   0.74370   0.00000   0.01267  Uiso   1.00
C211   C     0.39240   0.25630   0.00000   0.01267  Uiso   1.00
C212   C     0.60760   0.25630   0.00000   0.01267  Uiso   1.00
C213   C     0.74370   0.00000   0.39240   0.01267  Uiso   1.00
C214   C     0.74370   0.00000   0.60760   0.01267  Uiso   1.00
C215   C     0.25630   0.00000   0.60760   0.01267  Uiso   1.00
C216   C     0.25630   0.00000   0.39240   0.01267  Uiso   1.00
C217   C     0.50000   0.89010   0.75260   0.01267  Uiso   1.00
C218   C     0.50000   0.10990   0.75260   0.01267  Uiso   1.00
C219   C     0.50000   0.89010   0.24740   0.01267  Uiso   1.00
C220   C     0.50000   0.10990   0.24740   0.01267  Uiso   1.00
C221   C     0.75260   0.50000   0.89010   0.01267  Uiso   1.00
C222   C     0.75260   0.50000   0.10990   0.01267  Uiso   1.00
C223   C     0.24740   0.50000   0.89010   0.01267  Uiso   1.00
C224   C     0.24740   0.50000   0.10990   0.01267  Uiso   1.00
C225   C     0.89010   0.75260   0.50000   0.01267  Uiso   1.00
C226   C     0.10990   0.75260   0.50000   0.01267  Uiso   1.00
C227   C     0.89010   0.24740   0.50000   0.01267  Uiso   1.00
C228   C     0.10990   0.24740   0.50000   0.01267  Uiso   1.00
C229   C     0.89010   0.50000   0.24740   0.01267  Uiso   1.00
C230   C     0.10990   0.50000   0.24740   0.01267  Uiso   1.00
C231   C     0.89010   0.50000   0.75260   0.01267  Uiso   1.00
C232   C     0.10990   0.50000   0.75260   0.01267  Uiso   1.00
C233   C     0.50000   0.75260   0.10990   0.01267  Uiso   1.00
C234   C     0.50000   0.75260   0.89010   0.01267  Uiso   1.00
C235   C     0.50000   0.24740   0.10990   0.01267  Uiso   1.00
C236   C     0.50000   0.24740   0.89010   0.01267  Uiso   1.00
C237   C     0.75260   0.89010   0.50000   0.01267  Uiso   1.00
C238   C     0.75260   0.10990   0.50000   0.01267  Uiso   1.00
C239   C     0.24740   0.89010   0.50000   0.01267  Uiso   1.00
C240   C     0.24740   0.10990   0.50000   0.01267  Uiso   1.00
C241   C     0.68350   0.88980   0.68350   0.01267  Uiso   1.00
C242   C     0.31650   0.11020   0.68350   0.01267  Uiso   1.00
C243   C     0.31650   0.88980   0.31650   0.01267  Uiso   1.00
C244   C     0.68350   0.11020   0.31650   0.01267  Uiso   1.00
C245   C     0.68350   0.68350   0.88980   0.01267  Uiso   1.00
C246   C     0.68350   0.31650   0.11020   0.01267  Uiso   1.00
C247   C     0.31650   0.31650   0.88980   0.01267  Uiso   1.00
C248   C     0.31650   0.68350   0.11020   0.01267  Uiso   1.00
C249   C     0.88980   0.68350   0.68350   0.01267  Uiso   1.00
C250   C     0.11020   0.68350   0.31650   0.01267  Uiso   1.00
C251   C     0.88980   0.31650   0.31650   0.01267  Uiso   1.00
C252   C     0.11020   0.31650   0.68350   0.01267  Uiso   1.00
C253   C     0.88980   0.68350   0.31650   0.01267  Uiso   1.00
C254   C     0.11020   0.31650   0.31650   0.01267  Uiso   1.00
C255   C     0.88980   0.31650   0.68350   0.01267  Uiso   1.00
C256   C     0.11020   0.68350   0.68350   0.01267  Uiso   1.00
C257   C     0.68350   0.68350   0.11020   0.01267  Uiso   1.00
C258   C     0.31650   0.68350   0.88980   0.01267  Uiso   1.00
C259   C     0.31650   0.31650   0.11020   0.01267  Uiso   1.00
C260   C     0.68350   0.31650   0.88980   0.01267  Uiso   1.00
C261   C     0.68350   0.88980   0.31650   0.01267  Uiso   1.00
C262   C     0.68350   0.11020   0.68350   0.01267  Uiso   1.00
C263   C     0.31650   0.88980   0.68350   0.01267  Uiso   1.00
C264   C     0.31650   0.11020   0.31650   0.01267  Uiso   1.00
C265   C     0.60590   0.82200   0.82200   0.01267  Uiso   1.00
C266   C     0.39410   0.17800   0.82200   0.01267  Uiso   1.00
C267   C     0.39410   0.82200   0.17800   0.01267  Uiso   1.00
C268   C     0.60590   0.17800   0.17800   0.01267  Uiso   1.00
C269   C     0.82200   0.60590   0.82200   0.01267  Uiso   1.00
C270   C     0.82200   0.39410   0.17800   0.01267  Uiso   1.00
C271   C     0.17800   0.39410   0.82200   0.01267  Uiso   1.00
C272   C     0.17800   0.60590   0.17800   0.01267  Uiso   1.00
C273   C     0.82200   0.82200   0.60590   0.01267  Uiso   1.00
C274   C     0.17800   0.82200   0.39410   0.01267  Uiso   1.00
C275   C     0.82200   0.17800   0.39410   0.01267  Uiso   1.00
C276   C     0.17800   0.17800   0.60590   0.01267  Uiso   1.00
C277   C     0.82200   0.60590   0.17800   0.01267  Uiso   1.00
C278   C     0.17800   0.39410   0.17800   0.01267  Uiso   1.00
C279   C     0.82200   0.39410   0.82200   0.01267  Uiso   1.00
C280   C     0.17800   0.60590   0.82200   0.01267  Uiso   1.00
C281   C     0.60590   0.82200   0.17800   0.01267  Uiso   1.00
C282   C     0.39410   0.82200   0.82200   0.01267  Uiso   1.00
C283   C     0.39410   0.17800   0.17800   0.01267  Uiso   1.00
C284   C     0.60590   0.17800   0.82200   0.01267  Uiso   1.00
C285   C     0.82200   0.82200   0.39410   0.01267  Uiso   1.00
C286   C     0.82200   0.17800   0.60590   0.01267  Uiso   1.00
C287   C     0.17800   0.82200   0.60590   0.01267  Uiso   1.00
C288   C     0.17800   0.17800   0.39410   0.01267  Uiso   1.00
N1     N     0.62860   0.96000   0.75610   0.01267  Uiso   1.00
N2     N     0.53810   0.89990   0.72700   0.01267  Uiso   1.00
N3     N     0.64720   0.86650   0.70290   0.01267  Uiso   1.00
N4     N     0.59850   0.86490   0.80960   0.01267  Uiso   1.00
N5     N     0.37140   0.04000   0.75610   0.01267  Uiso   1.00
N6     N     0.46190   0.10010   0.72700   0.01267  Uiso   1.00
N7     N     0.35280   0.13350   0.70290   0.01267  Uiso   1.00
N8     N     0.40150   0.13510   0.80960   0.01267  Uiso   1.00
N9     N     0.37140   0.96000   0.24390   0.01267  Uiso   1.00
N10    N     0.46190   0.89990   0.27300   0.01267  Uiso   1.00
N11    N     0.35280   0.86650   0.29710   0.01267  Uiso   1.00
N12    N     0.40150   0.86490   0.19040   0.01267  Uiso   1.00
N13    N     0.62860   0.04000   0.24390   0.01267  Uiso   1.00
N14    N     0.53810   0.10010   0.27300   0.01267  Uiso   1.00
N15    N     0.64720   0.13350   0.29710   0.01267  Uiso   1.00
N16    N     0.59850   0.13510   0.19040   0.01267  Uiso   1.00
N17    N     0.75610   0.62860   0.96000   0.01267  Uiso   1.00
N18    N     0.72700   0.53810   0.89990   0.01267  Uiso   1.00
N19    N     0.70290   0.64720   0.86650   0.01267  Uiso   1.00
N20    N     0.80960   0.59850   0.86490   0.01267  Uiso   1.00
N21    N     0.75610   0.37140   0.04000   0.01267  Uiso   1.00
N22    N     0.72700   0.46190   0.10010   0.01267  Uiso   1.00
N23    N     0.70290   0.35280   0.13350   0.01267  Uiso   1.00
N24    N     0.80960   0.40150   0.13510   0.01267  Uiso   1.00
N25    N     0.24390   0.37140   0.96000   0.01267  Uiso   1.00
N26    N     0.27300   0.46190   0.89990   0.01267  Uiso   1.00
N27    N     0.29710   0.35280   0.86650   0.01267  Uiso   1.00
N28    N     0.19040   0.40150   0.86490   0.01267  Uiso   1.00
N29    N     0.24390   0.62860   0.04000   0.01267  Uiso   1.00
N30    N     0.27300   0.53810   0.10010   0.01267  Uiso   1.00
N31    N     0.29710   0.64720   0.13350   0.01267  Uiso   1.00
N32    N     0.19040   0.59850   0.13510   0.01267  Uiso   1.00
N33    N     0.96000   0.75610   0.62860   0.01267  Uiso   1.00
N34    N     0.89990   0.72700   0.53810   0.01267  Uiso   1.00
N35    N     0.86650   0.70290   0.64720   0.01267  Uiso   1.00
N36    N     0.86490   0.80960   0.59850   0.01267  Uiso   1.00
N37    N     0.04000   0.75610   0.37140   0.01267  Uiso   1.00
N38    N     0.10010   0.72700   0.46190   0.01267  Uiso   1.00
N39    N     0.13350   0.70290   0.35280   0.01267  Uiso   1.00
N40    N     0.13510   0.80960   0.40150   0.01267  Uiso   1.00
N41    N     0.96000   0.24390   0.37140   0.01267  Uiso   1.00
N42    N     0.89990   0.27300   0.46190   0.01267  Uiso   1.00
N43    N     0.86650   0.29710   0.35280   0.01267  Uiso   1.00
N44    N     0.86490   0.19040   0.40150   0.01267  Uiso   1.00
N45    N     0.04000   0.24390   0.62860   0.01267  Uiso   1.00
N46    N     0.10010   0.27300   0.53810   0.01267  Uiso   1.00
N47    N     0.13350   0.29710   0.64720   0.01267  Uiso   1.00
N48    N     0.13510   0.19040   0.59850   0.01267  Uiso   1.00
N49    N     0.96000   0.62860   0.24390   0.01267  Uiso   1.00
N50    N     0.89990   0.53810   0.27300   0.01267  Uiso   1.00
N51    N     0.86650   0.64720   0.29710   0.01267  Uiso   1.00
N52    N     0.86490   0.59850   0.19040   0.01267  Uiso   1.00
N53    N     0.04000   0.37140   0.24390   0.01267  Uiso   1.00
N54    N     0.10010   0.46190   0.27300   0.01267  Uiso   1.00
N55    N     0.13350   0.35280   0.29710   0.01267  Uiso   1.00
N56    N     0.13510   0.40150   0.19040   0.01267  Uiso   1.00
N57    N     0.96000   0.37140   0.75610   0.01267  Uiso   1.00
N58    N     0.89990   0.46190   0.72700   0.01267  Uiso   1.00
N59    N     0.86650   0.35280   0.70290   0.01267  Uiso   1.00
N60    N     0.86490   0.40150   0.80960   0.01267  Uiso   1.00
N61    N     0.04000   0.62860   0.75610   0.01267  Uiso   1.00
N62    N     0.10010   0.53810   0.72700   0.01267  Uiso   1.00
N63    N     0.13350   0.64720   0.70290   0.01267  Uiso   1.00
N64    N     0.13510   0.59850   0.80960   0.01267  Uiso   1.00
N65    N     0.62860   0.75610   0.04000   0.01267  Uiso   1.00
N66    N     0.53810   0.72700   0.10010   0.01267  Uiso   1.00
N67    N     0.64720   0.70290   0.13350   0.01267  Uiso   1.00
N68    N     0.59850   0.80960   0.13510   0.01267  Uiso   1.00
N69    N     0.37140   0.75610   0.96000   0.01267  Uiso   1.00
N70    N     0.46190   0.72700   0.89990   0.01267  Uiso   1.00
N71    N     0.35280   0.70290   0.86650   0.01267  Uiso   1.00
N72    N     0.40150   0.80960   0.86490   0.01267  Uiso   1.00
N73    N     0.37140   0.24390   0.04000   0.01267  Uiso   1.00
N74    N     0.46190   0.27300   0.10010   0.01267  Uiso   1.00
N75    N     0.35280   0.29710   0.13350   0.01267  Uiso   1.00
N76    N     0.40150   0.19040   0.13510   0.01267  Uiso   1.00
N77    N     0.62860   0.24390   0.96000   0.01267  Uiso   1.00
N78    N     0.53810   0.27300   0.89990   0.01267  Uiso   1.00
N79    N     0.64720   0.29710   0.86650   0.01267  Uiso   1.00
N80    N     0.59850   0.19040   0.86490   0.01267  Uiso   1.00
N81    N     0.75610   0.96000   0.37140   0.01267  Uiso   1.00
N82    N     0.72700   0.89990   0.46190   0.01267  Uiso   1.00
N83    N     0.70290   0.86650   0.35280   0.01267  Uiso   1.00
N84    N     0.80960   0.86490   0.40150   0.01267  Uiso   1.00
N85    N     0.75610   0.04000   0.62860   0.01267  Uiso   1.00
N86    N     0.72700   0.10010   0.53810   0.01267  Uiso   1.00
N87    N     0.70290   0.13350   0.64720   0.01267  Uiso   1.00
N88    N     0.80960   0.13510   0.59850   0.01267  Uiso   1.00
N89    N     0.24390   0.96000   0.62860   0.01267  Uiso   1.00
N90    N     0.27300   0.89990   0.53810   0.01267  Uiso   1.00
N91    N     0.29710   0.86650   0.64720   0.01267  Uiso   1.00
N92    N     0.19040   0.86490   0.59850   0.01267  Uiso   1.00
N93    N     0.24390   0.04000   0.37140   0.01267  Uiso   1.00
N94    N     0.27300   0.10010   0.46190   0.01267  Uiso   1.00
N95    N     0.29710   0.13350   0.35280   0.01267  Uiso   1.00
N96    N     0.19040   0.13510   0.40150   0.01267  Uiso   1.00
N97    N     0.37140   0.04000   0.24390   0.01267  Uiso   1.00
N98    N     0.46190   0.10010   0.27300   0.01267  Uiso   1.00
N99    N     0.35280   0.13350   0.29710   0.01267  Uiso   1.00
N100   N     0.40150   0.13510   0.19040   0.01267  Uiso   1.00
N101   N     0.62860   0.96000   0.24390   0.01267  Uiso   1.00
N102   N     0.53810   0.89990   0.27300   0.01267  Uiso   1.00
N103   N     0.64720   0.86650   0.29710   0.01267  Uiso   1.00
N104   N     0.59850   0.86490   0.19040   0.01267  Uiso   1.00
N105   N     0.62860   0.04000   0.75610   0.01267  Uiso   1.00
N106   N     0.53810   0.10010   0.72700   0.01267  Uiso   1.00
N107   N     0.64720   0.13350   0.70290   0.01267  Uiso   1.00
N108   N     0.59850   0.13510   0.80960   0.01267  Uiso   1.00
N109   N     0.37140   0.96000   0.75610   0.01267  Uiso   1.00
N110   N     0.46190   0.89990   0.72700   0.01267  Uiso   1.00
N111   N     0.35280   0.86650   0.70290   0.01267  Uiso   1.00
N112   N     0.40150   0.86490   0.80960   0.01267  Uiso   1.00
N113   N     0.24390   0.37140   0.04000   0.01267  Uiso   1.00
N114   N     0.27300   0.46190   0.10010   0.01267  Uiso   1.00
N115   N     0.29710   0.35280   0.13350   0.01267  Uiso   1.00
N116   N     0.19040   0.40150   0.13510   0.01267  Uiso   1.00
N117   N     0.24390   0.62860   0.96000   0.01267  Uiso   1.00
N118   N     0.27300   0.53810   0.89990   0.01267  Uiso   1.00
N119   N     0.29710   0.64720   0.86650   0.01267  Uiso   1.00
N120   N     0.19040   0.59850   0.86490   0.01267  Uiso   1.00
N121   N     0.75610   0.62860   0.04000   0.01267  Uiso   1.00
N122   N     0.72700   0.53810   0.10010   0.01267  Uiso   1.00
N123   N     0.70290   0.64720   0.13350   0.01267  Uiso   1.00
N124   N     0.80960   0.59850   0.13510   0.01267  Uiso   1.00
N125   N     0.75610   0.37140   0.96000   0.01267  Uiso   1.00
N126   N     0.72700   0.46190   0.89990   0.01267  Uiso   1.00
N127   N     0.70290   0.35280   0.86650   0.01267  Uiso   1.00
N128   N     0.80960   0.40150   0.86490   0.01267  Uiso   1.00
N129   N     0.04000   0.24390   0.37140   0.01267  Uiso   1.00
N130   N     0.10010   0.27300   0.46190   0.01267  Uiso   1.00
N131   N     0.13350   0.29710   0.35280   0.01267  Uiso   1.00
N132   N     0.13510   0.19040   0.40150   0.01267  Uiso   1.00
N133   N     0.96000   0.24390   0.62860   0.01267  Uiso   1.00
N134   N     0.89990   0.27300   0.53810   0.01267  Uiso   1.00
N135   N     0.86650   0.29710   0.64720   0.01267  Uiso   1.00
N136   N     0.86490   0.19040   0.59850   0.01267  Uiso   1.00
N137   N     0.04000   0.75610   0.62860   0.01267  Uiso   1.00
N138   N     0.10010   0.72700   0.53810   0.01267  Uiso   1.00
N139   N     0.13350   0.70290   0.64720   0.01267  Uiso   1.00
N140   N     0.13510   0.80960   0.59850   0.01267  Uiso   1.00
N141   N     0.96000   0.75610   0.37140   0.01267  Uiso   1.00
N142   N     0.89990   0.72700   0.46190   0.01267  Uiso   1.00
N143   N     0.86650   0.70290   0.35280   0.01267  Uiso   1.00
N144   N     0.86490   0.80960   0.40150   0.01267  Uiso   1.00
N145   N     0.04000   0.37140   0.75610   0.01267  Uiso   1.00
N146   N     0.10010   0.46190   0.72700   0.01267  Uiso   1.00
N147   N     0.13350   0.35280   0.70290   0.01267  Uiso   1.00
N148   N     0.13510   0.40150   0.80960   0.01267  Uiso   1.00
N149   N     0.96000   0.62860   0.75610   0.01267  Uiso   1.00
N150   N     0.89990   0.53810   0.72700   0.01267  Uiso   1.00
N151   N     0.86650   0.64720   0.70290   0.01267  Uiso   1.00
N152   N     0.86490   0.59850   0.80960   0.01267  Uiso   1.00
N153   N     0.04000   0.62860   0.24390   0.01267  Uiso   1.00
N154   N     0.10010   0.53810   0.27300   0.01267  Uiso   1.00
N155   N     0.13350   0.64720   0.29710   0.01267  Uiso   1.00
N156   N     0.13510   0.59850   0.19040   0.01267  Uiso   1.00
N157   N     0.96000   0.37140   0.24390   0.01267  Uiso   1.00
N158   N     0.89990   0.46190   0.27300   0.01267  Uiso   1.00
N159   N     0.86650   0.35280   0.29710   0.01267  Uiso   1.00
N160   N     0.86490   0.40150   0.19040   0.01267  Uiso   1.00
N161   N     0.37140   0.24390   0.96000   0.01267  Uiso   1.00
N162   N     0.46190   0.27300   0.89990   0.01267  Uiso   1.00
N163   N     0.35280   0.29710   0.86650   0.01267  Uiso   1.00
N164   N     0.40150   0.19040   0.86490   0.01267  Uiso   1.00
N165   N     0.62860   0.24390   0.04000   0.01267  Uiso   1.00
N166   N     0.53810   0.27300   0.10010   0.01267  Uiso   1.00
N167   N     0.64720   0.29710   0.13350   0.01267  Uiso   1.00
N168   N     0.59850   0.19040   0.13510   0.01267  Uiso   1.00
N169   N     0.62860   0.75610   0.96000   0.01267  Uiso   1.00
N170   N     0.53810   0.72700   0.89990   0.01267  Uiso   1.00
N171   N     0.64720   0.70290   0.86650   0.01267  Uiso   1.00
N172   N     0.59850   0.80960   0.86490   0.01267  Uiso   1.00
N173   N     0.37140   0.75610   0.04000   0.01267  Uiso   1.00
N174   N     0.46190   0.72700   0.10010   0.01267  Uiso   1.00
N175   N     0.35280   0.70290   0.13350   0.01267  Uiso   1.00
N176   N     0.40150   0.80960   0.13510   0.01267  Uiso   1.00
N177   N     0.24390   0.04000   0.62860   0.01267  Uiso   1.00
N178   N     0.27300   0.10010   0.53810   0.01267  Uiso   1.00
N179   N     0.29710   0.13350   0.64720   0.01267  Uiso   1.00
N180   N     0.19040   0.13510   0.59850   0.01267  Uiso   1.00
N181   N     0.24390   0.96000   0.37140   0.01267  Uiso   1.00
N182   N     0.27300   0.89990   0.46190   0.01267  Uiso   1.00
N183   N     0.29710   0.86650   0.35280   0.01267  Uiso   1.00
N184   N     0.19040   0.86490   0.40150   0.01267  Uiso   1.00
N185   N     0.75610   0.04000   0.37140   0.01267  Uiso   1.00
N186   N     0.72700   0.10010   0.46190   0.01267  Uiso   1.00
N187   N     0.70290   0.13350   0.35280   0.01267  Uiso   1.00
N188   N     0.80960   0.13510   0.40150   0.01267  Uiso   1.00
N189   N     0.75610   0.96000   0.62860   0.01267  Uiso   1.00
N190   N     0.72700   0.89990   0.53810   0.01267  Uiso   1.00
N191   N     0.70290   0.86650   0.64720   0.01267  Uiso   1.00
N192   N     0.80960   0.86490   0.59850   0.01267  Uiso   1.00
Cl1    Cl    0.70476   0.93868   0.80425   0.01267  Uiso   1.00
Cl2    Cl    0.56040   0.94850   0.63730   0.01267  Uiso   1.00
Cl3    Cl    0.60275   0.78501   0.68890   0.01267  Uiso   1.00
Cl4    Cl    0.56688   0.94050   0.85554   0.01267  Uiso   1.00
Cl5    Cl    0.29524   0.06132   0.80425   0.01267  Uiso   1.00
Cl6    Cl    0.43960   0.05150   0.63730   0.01267  Uiso   1.00
Cl7    Cl    0.39725   0.21499   0.68890   0.01267  Uiso   1.00
Cl8    Cl    0.43312   0.05950   0.85554   0.01267  Uiso   1.00
Cl9    Cl    0.29524   0.93868   0.19575   0.01267  Uiso   1.00
Cl10   Cl    0.43960   0.94850   0.36270   0.01267  Uiso   1.00
Cl11   Cl    0.39725   0.78501   0.31110   0.01267  Uiso   1.00
Cl12   Cl    0.43312   0.94050   0.14446   0.01267  Uiso   1.00
Cl13   Cl    0.70476   0.06132   0.19575   0.01267  Uiso   1.00
Cl14   Cl    0.56040   0.05150   0.36270   0.01267  Uiso   1.00
Cl15   Cl    0.60275   0.21499   0.31110   0.01267  Uiso   1.00
Cl16   Cl    0.56688   0.05950   0.14446   0.01267  Uiso   1.00
Cl17   Cl    0.80425   0.70476   0.93868   0.01267  Uiso   1.00
Cl18   Cl    0.63730   0.56040   0.94850   0.01267  Uiso   1.00
Cl19   Cl    0.68890   0.60275   0.78501   0.01267  Uiso   1.00
Cl20   Cl    0.85554   0.56688   0.94050   0.01267  Uiso   1.00
Cl21   Cl    0.80425   0.29524   0.06132   0.01267  Uiso   1.00
Cl22   Cl    0.63730   0.43960   0.05150   0.01267  Uiso   1.00
Cl23   Cl    0.68890   0.39725   0.21499   0.01267  Uiso   1.00
Cl24   Cl    0.85554   0.43312   0.05950   0.01267  Uiso   1.00
Cl25   Cl    0.19575   0.29524   0.93868   0.01267  Uiso   1.00
Cl26   Cl    0.36270   0.43960   0.94850   0.01267  Uiso   1.00
Cl27   Cl    0.31110   0.39725   0.78501   0.01267  Uiso   1.00
Cl28   Cl    0.14446   0.43312   0.94050   0.01267  Uiso   1.00
Cl29   Cl    0.19575   0.70476   0.06132   0.01267  Uiso   1.00
Cl30   Cl    0.36270   0.56040   0.05150   0.01267  Uiso   1.00
Cl31   Cl    0.31110   0.60275   0.21499   0.01267  Uiso   1.00
Cl32   Cl    0.14446   0.56688   0.05950   0.01267  Uiso   1.00
Cl33   Cl    0.93868   0.80425   0.70476   0.01267  Uiso   1.00
Cl34   Cl    0.94850   0.63730   0.56040   0.01267  Uiso   1.00
Cl35   Cl    0.78501   0.68890   0.60275   0.01267  Uiso   1.00
Cl36   Cl    0.94050   0.85554   0.56688   0.01267  Uiso   1.00
Cl37   Cl    0.06132   0.80425   0.29524   0.01267  Uiso   1.00
Cl38   Cl    0.05150   0.63730   0.43960   0.01267  Uiso   1.00
Cl39   Cl    0.21499   0.68890   0.39725   0.01267  Uiso   1.00
Cl40   Cl    0.05950   0.85554   0.43312   0.01267  Uiso   1.00
Cl41   Cl    0.93868   0.19575   0.29524   0.01267  Uiso   1.00
Cl42   Cl    0.94850   0.36270   0.43960   0.01267  Uiso   1.00
Cl43   Cl    0.78501   0.31110   0.39725   0.01267  Uiso   1.00
Cl44   Cl    0.94050   0.14446   0.43312   0.01267  Uiso   1.00
Cl45   Cl    0.06132   0.19575   0.70476   0.01267  Uiso   1.00
Cl46   Cl    0.05150   0.36270   0.56040   0.01267  Uiso   1.00
Cl47   Cl    0.21499   0.31110   0.60275   0.01267  Uiso   1.00
Cl48   Cl    0.05950   0.14446   0.56688   0.01267  Uiso   1.00
Cl49   Cl    0.93868   0.70476   0.19575   0.01267  Uiso   1.00
Cl50   Cl    0.94850   0.56040   0.36270   0.01267  Uiso   1.00
Cl51   Cl    0.78501   0.60275   0.31110   0.01267  Uiso   1.00
Cl52   Cl    0.94050   0.56688   0.14446   0.01267  Uiso   1.00
Cl53   Cl    0.06132   0.29524   0.19575   0.01267  Uiso   1.00
Cl54   Cl    0.05150   0.43960   0.36270   0.01267  Uiso   1.00
Cl55   Cl    0.21499   0.39725   0.31110   0.01267  Uiso   1.00
Cl56   Cl    0.05950   0.43312   0.14446   0.01267  Uiso   1.00
Cl57   Cl    0.93868   0.29524   0.80425   0.01267  Uiso   1.00
Cl58   Cl    0.94850   0.43960   0.63730   0.01267  Uiso   1.00
Cl59   Cl    0.78501   0.39725   0.68890   0.01267  Uiso   1.00
Cl60   Cl    0.94050   0.43312   0.85554   0.01267  Uiso   1.00
Cl61   Cl    0.06132   0.70476   0.80425   0.01267  Uiso   1.00
Cl62   Cl    0.05150   0.56040   0.63730   0.01267  Uiso   1.00
Cl63   Cl    0.21499   0.60275   0.68890   0.01267  Uiso   1.00
Cl64   Cl    0.05950   0.56688   0.85554   0.01267  Uiso   1.00
Cl65   Cl    0.70476   0.80425   0.06132   0.01267  Uiso   1.00
Cl66   Cl    0.56040   0.63730   0.05150   0.01267  Uiso   1.00
Cl67   Cl    0.60275   0.68890   0.21499   0.01267  Uiso   1.00
Cl68   Cl    0.56688   0.85554   0.05950   0.01267  Uiso   1.00
Cl69   Cl    0.29524   0.80425   0.93868   0.01267  Uiso   1.00
Cl70   Cl    0.43960   0.63730   0.94850   0.01267  Uiso   1.00
Cl71   Cl    0.39725   0.68890   0.78501   0.01267  Uiso   1.00
Cl72   Cl    0.43312   0.85554   0.94050   0.01267  Uiso   1.00
Cl73   Cl    0.29524   0.19575   0.06132   0.01267  Uiso   1.00
Cl74   Cl    0.43960   0.36270   0.05150   0.01267  Uiso   1.00
Cl75   Cl    0.39725   0.31110   0.21499   0.01267  Uiso   1.00
Cl76   Cl    0.43312   0.14446   0.05950   0.01267  Uiso   1.00
Cl77   Cl    0.70476   0.19575   0.93868   0.01267  Uiso   1.00
Cl78   Cl    0.56040   0.36270   0.94850   0.01267  Uiso   1.00
Cl79   Cl    0.60275   0.31110   0.78501   0.01267  Uiso   1.00
Cl80   Cl    0.56688   0.14446   0.94050   0.01267  Uiso   1.00
Cl81   Cl    0.80425   0.93868   0.29524   0.01267  Uiso   1.00
Cl82   Cl    0.63730   0.94850   0.43960   0.01267  Uiso   1.00
Cl83   Cl    0.68890   0.78501   0.39725   0.01267  Uiso   1.00
Cl84   Cl    0.85554   0.94050   0.43312   0.01267  Uiso   1.00
Cl85   Cl    0.80425   0.06132   0.70476   0.01267  Uiso   1.00
Cl86   Cl    0.63730   0.05150   0.56040   0.01267  Uiso   1.00
Cl87   Cl    0.68890   0.21499   0.60275   0.01267  Uiso   1.00
Cl88   Cl    0.85554   0.05950   0.56688   0.01267  Uiso   1.00
Cl89   Cl    0.19575   0.93868   0.70476   0.01267  Uiso   1.00
Cl90   Cl    0.36270   0.94850   0.56040   0.01267  Uiso   1.00
Cl91   Cl    0.31110   0.78501   0.60275   0.01267  Uiso   1.00
Cl92   Cl    0.14446   0.94050   0.56688   0.01267  Uiso   1.00
Cl93   Cl    0.19575   0.06132   0.29524   0.01267  Uiso   1.00
Cl94   Cl    0.36270   0.05150   0.43960   0.01267  Uiso   1.00
Cl95   Cl    0.31110   0.21499   0.39725   0.01267  Uiso   1.00
Cl96   Cl    0.14446   0.05950   0.43312   0.01267  Uiso   1.00
Cl97   Cl    0.29524   0.06132   0.19575   0.01267  Uiso   1.00
Cl98   Cl    0.43960   0.05150   0.36270   0.01267  Uiso   1.00
Cl99   Cl    0.39725   0.21499   0.31110   0.01267  Uiso   1.00
Cl100  Cl    0.43312   0.05950   0.14446   0.01267  Uiso   1.00
Cl101  Cl    0.70476   0.93868   0.19575   0.01267  Uiso   1.00
Cl102  Cl    0.56040   0.94850   0.36270   0.01267  Uiso   1.00
Cl103  Cl    0.60275   0.78501   0.31110   0.01267  Uiso   1.00
Cl104  Cl    0.56688   0.94050   0.14446   0.01267  Uiso   1.00
Cl105  Cl    0.70476   0.06132   0.80425   0.01267  Uiso   1.00
Cl106  Cl    0.56040   0.05150   0.63730   0.01267  Uiso   1.00
Cl107  Cl    0.60275   0.21499   0.68890   0.01267  Uiso   1.00
Cl108  Cl    0.56688   0.05950   0.85554   0.01267  Uiso   1.00
Cl109  Cl    0.29524   0.93868   0.80425   0.01267  Uiso   1.00
Cl110  Cl    0.43960   0.94850   0.63730   0.01267  Uiso   1.00
Cl111  Cl    0.39725   0.78501   0.68890   0.01267  Uiso   1.00
Cl112  Cl    0.43312   0.94050   0.85554   0.01267  Uiso   1.00
Cl113  Cl    0.19575   0.29524   0.06132   0.01267  Uiso   1.00
Cl114  Cl    0.36270   0.43960   0.05150   0.01267  Uiso   1.00
Cl115  Cl    0.31110   0.39725   0.21499   0.01267  Uiso   1.00
Cl116  Cl    0.14446   0.43312   0.05950   0.01267  Uiso   1.00
Cl117  Cl    0.19575   0.70476   0.93868   0.01267  Uiso   1.00
Cl118  Cl    0.36270   0.56040   0.94850   0.01267  Uiso   1.00
Cl119  Cl    0.31110   0.60275   0.78501   0.01267  Uiso   1.00
Cl120  Cl    0.14446   0.56688   0.94050   0.01267  Uiso   1.00
Cl121  Cl    0.80425   0.70476   0.06132   0.01267  Uiso   1.00
Cl122  Cl    0.63730   0.56040   0.05150   0.01267  Uiso   1.00
Cl123  Cl    0.68890   0.60275   0.21499   0.01267  Uiso   1.00
Cl124  Cl    0.85554   0.56688   0.05950   0.01267  Uiso   1.00
Cl125  Cl    0.80425   0.29524   0.93868   0.01267  Uiso   1.00
Cl126  Cl    0.63730   0.43960   0.94850   0.01267  Uiso   1.00
Cl127  Cl    0.68890   0.39725   0.78501   0.01267  Uiso   1.00
Cl128  Cl    0.85554   0.43312   0.94050   0.01267  Uiso   1.00
Cl129  Cl    0.06132   0.19575   0.29524   0.01267  Uiso   1.00
Cl130  Cl    0.05150   0.36270   0.43960   0.01267  Uiso   1.00
Cl131  Cl    0.21499   0.31110   0.39725   0.01267  Uiso   1.00
Cl132  Cl    0.05950   0.14446   0.43312   0.01267  Uiso   1.00
Cl133  Cl    0.93868   0.19575   0.70476   0.01267  Uiso   1.00
Cl134  Cl    0.94850   0.36270   0.56040   0.01267  Uiso   1.00
Cl135  Cl    0.78501   0.31110   0.60275   0.01267  Uiso   1.00
Cl136  Cl    0.94050   0.14446   0.56688   0.01267  Uiso   1.00
Cl137  Cl    0.06132   0.80425   0.70476   0.01267  Uiso   1.00
Cl138  Cl    0.05150   0.63730   0.56040   0.01267  Uiso   1.00
Cl139  Cl    0.21499   0.68890   0.60275   0.01267  Uiso   1.00
Cl140  Cl    0.05950   0.85554   0.56688   0.01267  Uiso   1.00
Cl141  Cl    0.93868   0.80425   0.29524   0.01267  Uiso   1.00
Cl142  Cl    0.94850   0.63730   0.43960   0.01267  Uiso   1.00
Cl143  Cl    0.78501   0.68890   0.39725   0.01267  Uiso   1.00
Cl144  Cl    0.94050   0.85554   0.43312   0.01267  Uiso   1.00
Cl145  Cl    0.06132   0.29524   0.80425   0.01267  Uiso   1.00
Cl146  Cl    0.05150   0.43960   0.63730   0.01267  Uiso   1.00
Cl147  Cl    0.21499   0.39725   0.68890   0.01267  Uiso   1.00
Cl148  Cl    0.05950   0.43312   0.85554   0.01267  Uiso   1.00
Cl149  Cl    0.93868   0.70476   0.80425   0.01267  Uiso   1.00
Cl150  Cl    0.94850   0.56040   0.63730   0.01267  Uiso   1.00
Cl151  Cl    0.78501   0.60275   0.68890   0.01267  Uiso   1.00
Cl152  Cl    0.94050   0.56688   0.85554   0.01267  Uiso   1.00
Cl153  Cl    0.06132   0.70476   0.19575   0.01267  Uiso   1.00
Cl154  Cl    0.05150   0.56040   0.36270   0.01267  Uiso   1.00
Cl155  Cl    0.21499   0.60275   0.31110   0.01267  Uiso   1.00
Cl156  Cl    0.05950   0.56688   0.14446   0.01267  Uiso   1.00
Cl157  Cl    0.93868   0.29524   0.19575   0.01267  Uiso   1.00
Cl158  Cl    0.94850   0.43960   0.36270   0.01267  Uiso   1.00
Cl159  Cl    0.78501   0.39725   0.31110   0.01267  Uiso   1.00
Cl160  Cl    0.94050   0.43312   0.14446   0.01267  Uiso   1.00
Cl161  Cl    0.29524   0.19575   0.93868   0.01267  Uiso   1.00
Cl162  Cl    0.43960   0.36270   0.94850   0.01267  Uiso   1.00
Cl163  Cl    0.39725   0.31110   0.78501   0.01267  Uiso   1.00
Cl164  Cl    0.43312   0.14446   0.94050   0.01267  Uiso   1.00
Cl165  Cl    0.70476   0.19575   0.06132   0.01267  Uiso   1.00
Cl166  Cl    0.56040   0.36270   0.05150   0.01267  Uiso   1.00
Cl167  Cl    0.60275   0.31110   0.21499   0.01267  Uiso   1.00
Cl168  Cl    0.56688   0.14446   0.05950   0.01267  Uiso   1.00
Cl169  Cl    0.70476   0.80425   0.93868   0.01267  Uiso   1.00
Cl170  Cl    0.56040   0.63730   0.94850   0.01267  Uiso   1.00
Cl171  Cl    0.60275   0.68890   0.78501   0.01267  Uiso   1.00
Cl172  Cl    0.56688   0.85554   0.94050   0.01267  Uiso   1.00
Cl173  Cl    0.29524   0.80425   0.06132   0.01267  Uiso   1.00
Cl174  Cl    0.43960   0.63730   0.05150   0.01267  Uiso   1.00
Cl175  Cl    0.39725   0.68890   0.21499   0.01267  Uiso   1.00
Cl176  Cl    0.43312   0.85554   0.05950   0.01267  Uiso   1.00
Cl177  Cl    0.19575   0.06132   0.70476   0.01267  Uiso   1.00
Cl178  Cl    0.36270   0.05150   0.56040   0.01267  Uiso   1.00
Cl179  Cl    0.31110   0.21499   0.60275   0.01267  Uiso   1.00
Cl180  Cl    0.14446   0.05950   0.56688   0.01267  Uiso   1.00
Cl181  Cl    0.19575   0.93868   0.29524   0.01267  Uiso   1.00
Cl182  Cl    0.36270   0.94850   0.43960   0.01267  Uiso   1.00
Cl183  Cl    0.31110   0.78501   0.39725   0.01267  Uiso   1.00
Cl184  Cl    0.14446   0.94050   0.43312   0.01267  Uiso   1.00
Cl185  Cl    0.80425   0.06132   0.29524   0.01267  Uiso   1.00
Cl186  Cl    0.63730   0.05150   0.43960   0.01267  Uiso   1.00
Cl187  Cl    0.68890   0.21499   0.39725   0.01267  Uiso   1.00
Cl188  Cl    0.85554   0.05950   0.43312   0.01267  Uiso   1.00
Cl189  Cl    0.80425   0.93868   0.70476   0.01267  Uiso   1.00
Cl190  Cl    0.63730   0.94850   0.56040   0.01267  Uiso   1.00
Cl191  Cl    0.68890   0.78501   0.60275   0.01267  Uiso   1.00
Cl192  Cl    0.85554   0.94050   0.56688   0.01267  Uiso   1.00
