data_IYIHUU_manual
_audit_creation_date              2014-07-02
_audit_creation_method            'Materials Studio'
_symmetry_space_group_name_H-M    'P1'
_symmetry_Int_Tables_number       1
_symmetry_cell_setting            triclinic
loop_
_symmetry_equiv_pos_as_xyz
  x,y,z
_cell_length_a                    22.2120
_cell_length_b                    31.8320
_cell_length_c                    32.4480
_cell_angle_alpha                 90.0000
_cell_angle_beta                  101.5940
_cell_angle_gamma                 90.0000
loop_
_atom_site_label
_atom_site_type_symbol
_atom_site_fract_x
_atom_site_fract_y
_atom_site_fract_z
_atom_site_U_iso_or_equiv
_atom_site_adp_type
_atom_site_occupancy
Zn1    Zn    0.01348   0.25000   0.29630   0.01267  Uiso   1.00
Zn2    Zn    0.48652   0.25000   0.20370   0.01267  Uiso   1.00
H3     H     0.13863   0.35267   0.32006   0.01267  Uiso   1.00
H4     H     0.20404   0.41697   0.31981   0.01267  Uiso   1.00
H5     H     0.16366   0.41475   0.18245   0.01267  Uiso   1.00
H6     H     0.10196   0.35086   0.18254   0.01267  Uiso   1.00
H7     H     0.36137   0.35267   0.17994   0.01267  Uiso   1.00
H8     H     0.29596   0.41697   0.18019   0.01267  Uiso   1.00
H9     H     0.33634   0.41475   0.31755   0.01267  Uiso   1.00
H10    H     0.39826   0.35055   0.31725   0.01267  Uiso   1.00
H11    H     0.36137   0.14733   0.17994   0.01267  Uiso   1.00
H12    H     0.29596   0.08303   0.18019   0.01267  Uiso   1.00
H13    H     0.33634   0.08525   0.31755   0.01267  Uiso   1.00
H14    H     0.39826   0.14945   0.31725   0.01267  Uiso   1.00
H15    H     0.13863   0.14733   0.32006   0.01267  Uiso   1.00
H16    H     0.20404   0.08303   0.31981   0.01267  Uiso   1.00
H17    H     0.16366   0.08525   0.18245   0.01267  Uiso   1.00
H18    H     0.10196   0.14914   0.18254   0.01267  Uiso   1.00
H19    H     0.42693   0.25000   0.35025   0.01267  Uiso   1.00
H20    H     0.42783   0.25000   0.42938   0.01267  Uiso   1.00
H21    H     0.12133   0.25000   0.37507   0.01267  Uiso   1.00
H22    H     0.08152   0.25000   0.01286   0.01267  Uiso   1.00
H23    H     0.07307   0.25000   0.14975   0.01267  Uiso   1.00
H24    H     0.07217   0.25000   0.07062   0.01267  Uiso   1.00
H25    H     0.37867   0.25000   0.12493   0.01267  Uiso   1.00
H26    H     0.41848   0.25000   0.48714   0.01267  Uiso   1.00
C27    C     0.07760   0.30835   0.25215   0.01267  Uiso   1.00
C28    C     0.11970   0.34725   0.25195   0.01267  Uiso   1.00
C29    C     0.14545   0.36645   0.28890   0.01267  Uiso   1.00
C30    C     0.17970   0.40245   0.28880   0.01267  Uiso   1.00
C31    C     0.18440   0.42095   0.25070   0.01267  Uiso   1.00
C32    C     0.15800   0.40115   0.21395   0.01267  Uiso   1.00
C33    C     0.12510   0.36565   0.21370   0.01267  Uiso   1.00
C34    C     0.22005   0.46125   0.25155   0.01267  Uiso   1.00
C35    C     0.42240   0.30835   0.24785   0.01267  Uiso   1.00
C36    C     0.38030   0.34725   0.24805   0.01267  Uiso   1.00
C37    C     0.35455   0.36645   0.21110   0.01267  Uiso   1.00
C38    C     0.32030   0.40245   0.21120   0.01267  Uiso   1.00
C39    C     0.31560   0.42095   0.24930   0.01267  Uiso   1.00
C40    C     0.34200   0.40115   0.28605   0.01267  Uiso   1.00
C41    C     0.37490   0.36565   0.28630   0.01267  Uiso   1.00
C42    C     0.27995   0.46125   0.24845   0.01267  Uiso   1.00
C43    C     0.42240   0.19165   0.24785   0.01267  Uiso   1.00
C44    C     0.38030   0.15275   0.24805   0.01267  Uiso   1.00
C45    C     0.35455   0.13355   0.21110   0.01267  Uiso   1.00
C46    C     0.32030   0.09755   0.21120   0.01267  Uiso   1.00
C47    C     0.31560   0.07905   0.24930   0.01267  Uiso   1.00
C48    C     0.34200   0.09885   0.28605   0.01267  Uiso   1.00
C49    C     0.37490   0.13435   0.28630   0.01267  Uiso   1.00
C50    C     0.27995   0.03875   0.24845   0.01267  Uiso   1.00
C51    C     0.07760   0.19165   0.25215   0.01267  Uiso   1.00
C52    C     0.11970   0.15275   0.25195   0.01267  Uiso   1.00
C53    C     0.14545   0.13355   0.28890   0.01267  Uiso   1.00
C54    C     0.17970   0.09755   0.28880   0.01267  Uiso   1.00
C55    C     0.18440   0.07905   0.25070   0.01267  Uiso   1.00
C56    C     0.15800   0.09885   0.21395   0.01267  Uiso   1.00
C57    C     0.12510   0.13435   0.21370   0.01267  Uiso   1.00
C58    C     0.22005   0.03875   0.25155   0.01267  Uiso   1.00
C59    C     0.18905   0.00000   0.25160   0.01267  Uiso   1.00
C60    C     0.31095   0.00000   0.24840   0.01267  Uiso   1.00
C61    C     0.47250   0.25000   0.37385   0.01267  Uiso   1.00
C62    C     0.47300   0.25000   0.41780   0.01267  Uiso   1.00
C63    C     0.02630   0.25000   0.44830   0.01267  Uiso   1.00
C64    C     0.07950   0.25000   0.43150   0.01267  Uiso   1.00
C65    C     0.07700   0.25000   0.38770   0.01267  Uiso   1.00
C66    C     0.03350   0.25000   0.49220   0.01267  Uiso   1.00
C67    C     0.13700   0.25000   0.45850   0.01267  Uiso   1.00
C68    C     0.19000   0.25000   0.47700   0.01267  Uiso   1.00
C69    C     0.02750   0.25000   0.12615   0.01267  Uiso   1.00
C70    C     0.02700   0.25000   0.08220   0.01267  Uiso   1.00
C71    C     0.47370   0.25000   0.05170   0.01267  Uiso   1.00
C72    C     0.42050   0.25000   0.06850   0.01267  Uiso   1.00
C73    C     0.42300   0.25000   0.11230   0.01267  Uiso   1.00
C74    C     0.46650   0.25000   0.00780   0.01267  Uiso   1.00
C75    C     0.36300   0.25000   0.04150   0.01267  Uiso   1.00
C76    C     0.31000   0.25000   0.02300   0.01267  Uiso   1.00
Br77   Br    0.10355   0.00000   0.25180   0.01267  Uiso   1.00
Br78   Br    0.39645   0.00000   0.24820   0.01267  Uiso   1.00
N79    N     0.02610   0.25000   0.35605   0.01267  Uiso   1.00
N80    N     0.47390   0.25000   0.14395   0.01267  Uiso   1.00
O81    O     0.07385   0.29520   0.28695   0.01267  Uiso   1.00
O82    O     0.05345   0.29490   0.21755   0.01267  Uiso   1.00
O83    O     0.42615   0.29520   0.21305   0.01267  Uiso   1.00
O84    O     0.44655   0.29490   0.28245   0.01267  Uiso   1.00
O85    O     0.42615   0.20480   0.21305   0.01267  Uiso   1.00
O86    O     0.44655   0.20510   0.28245   0.01267  Uiso   1.00
O87    O     0.07385   0.20480   0.28695   0.01267  Uiso   1.00
O88    O     0.05345   0.20510   0.21755   0.01267  Uiso   1.00
Zn89   Zn    0.51348   0.25000   0.29630   0.01267  Uiso   1.00
Zn90   Zn    0.98652   0.25000   0.20370   0.01267  Uiso   1.00
H91    H     0.63863   0.35267   0.32006   0.01267  Uiso   1.00
H92    H     0.70404   0.41697   0.31981   0.01267  Uiso   1.00
H93    H     0.66366   0.41475   0.18245   0.01267  Uiso   1.00
H94    H     0.60196   0.35086   0.18254   0.01267  Uiso   1.00
H95    H     0.86137   0.35267   0.17994   0.01267  Uiso   1.00
H96    H     0.79596   0.41697   0.18019   0.01267  Uiso   1.00
H97    H     0.83634   0.41475   0.31755   0.01267  Uiso   1.00
H98    H     0.89826   0.35055   0.31725   0.01267  Uiso   1.00
H99    H     0.86137   0.14733   0.17994   0.01267  Uiso   1.00
H100   H     0.79596   0.08303   0.18019   0.01267  Uiso   1.00
H101   H     0.83634   0.08525   0.31755   0.01267  Uiso   1.00
H102   H     0.89826   0.14945   0.31725   0.01267  Uiso   1.00
H103   H     0.63863   0.14733   0.32006   0.01267  Uiso   1.00
H104   H     0.70404   0.08303   0.31981   0.01267  Uiso   1.00
H105   H     0.66366   0.08525   0.18245   0.01267  Uiso   1.00
H106   H     0.60196   0.14914   0.18254   0.01267  Uiso   1.00
H107   H     0.92693   0.25000   0.35025   0.01267  Uiso   1.00
H108   H     0.92783   0.25000   0.42938   0.01267  Uiso   1.00
H109   H     0.62133   0.25000   0.37507   0.01267  Uiso   1.00
H110   H     0.58152   0.25000   0.01286   0.01267  Uiso   1.00
H111   H     0.57307   0.25000   0.14975   0.01267  Uiso   1.00
H112   H     0.57217   0.25000   0.07062   0.01267  Uiso   1.00
H113   H     0.87867   0.25000   0.12493   0.01267  Uiso   1.00
H114   H     0.91848   0.25000   0.48714   0.01267  Uiso   1.00
C115   C     0.57760   0.30835   0.25215   0.01267  Uiso   1.00
C116   C     0.61970   0.34725   0.25195   0.01267  Uiso   1.00
C117   C     0.64545   0.36645   0.28890   0.01267  Uiso   1.00
C118   C     0.67970   0.40245   0.28880   0.01267  Uiso   1.00
C119   C     0.68440   0.42095   0.25070   0.01267  Uiso   1.00
C120   C     0.65800   0.40115   0.21395   0.01267  Uiso   1.00
C121   C     0.62510   0.36565   0.21370   0.01267  Uiso   1.00
C122   C     0.72005   0.46125   0.25155   0.01267  Uiso   1.00
C123   C     0.92240   0.30835   0.24785   0.01267  Uiso   1.00
C124   C     0.88030   0.34725   0.24805   0.01267  Uiso   1.00
C125   C     0.85455   0.36645   0.21110   0.01267  Uiso   1.00
C126   C     0.82030   0.40245   0.21120   0.01267  Uiso   1.00
C127   C     0.81560   0.42095   0.24930   0.01267  Uiso   1.00
C128   C     0.84200   0.40115   0.28605   0.01267  Uiso   1.00
C129   C     0.87490   0.36565   0.28630   0.01267  Uiso   1.00
C130   C     0.77995   0.46125   0.24845   0.01267  Uiso   1.00
C131   C     0.92240   0.19165   0.24785   0.01267  Uiso   1.00
C132   C     0.88030   0.15275   0.24805   0.01267  Uiso   1.00
C133   C     0.85455   0.13355   0.21110   0.01267  Uiso   1.00
C134   C     0.82030   0.09755   0.21120   0.01267  Uiso   1.00
C135   C     0.81560   0.07905   0.24930   0.01267  Uiso   1.00
C136   C     0.84200   0.09885   0.28605   0.01267  Uiso   1.00
C137   C     0.87490   0.13435   0.28630   0.01267  Uiso   1.00
C138   C     0.77995   0.03875   0.24845   0.01267  Uiso   1.00
C139   C     0.57760   0.19165   0.25215   0.01267  Uiso   1.00
C140   C     0.61970   0.15275   0.25195   0.01267  Uiso   1.00
C141   C     0.64545   0.13355   0.28890   0.01267  Uiso   1.00
C142   C     0.67970   0.09755   0.28880   0.01267  Uiso   1.00
C143   C     0.68440   0.07905   0.25070   0.01267  Uiso   1.00
C144   C     0.65800   0.09885   0.21395   0.01267  Uiso   1.00
C145   C     0.62510   0.13435   0.21370   0.01267  Uiso   1.00
C146   C     0.72005   0.03875   0.25155   0.01267  Uiso   1.00
C147   C     0.68905   0.00000   0.25160   0.01267  Uiso   1.00
C148   C     0.81095   0.00000   0.24840   0.01267  Uiso   1.00
C149   C     0.97250   0.25000   0.37385   0.01267  Uiso   1.00
C150   C     0.97300   0.25000   0.41780   0.01267  Uiso   1.00
C151   C     0.52630   0.25000   0.44830   0.01267  Uiso   1.00
C152   C     0.57950   0.25000   0.43150   0.01267  Uiso   1.00
C153   C     0.57700   0.25000   0.38770   0.01267  Uiso   1.00
C154   C     0.53350   0.25000   0.49220   0.01267  Uiso   1.00
C155   C     0.63700   0.25000   0.45850   0.01267  Uiso   1.00
C156   C     0.69000   0.25000   0.47700   0.01267  Uiso   1.00
C157   C     0.52750   0.25000   0.12615   0.01267  Uiso   1.00
C158   C     0.52700   0.25000   0.08220   0.01267  Uiso   1.00
C159   C     0.97370   0.25000   0.05170   0.01267  Uiso   1.00
C160   C     0.92050   0.25000   0.06850   0.01267  Uiso   1.00
C161   C     0.92300   0.25000   0.11230   0.01267  Uiso   1.00
C162   C     0.96650   0.25000   0.00780   0.01267  Uiso   1.00
C163   C     0.86300   0.25000   0.04150   0.01267  Uiso   1.00
C164   C     0.81000   0.25000   0.02300   0.01267  Uiso   1.00
Br165  Br    0.60355   0.00000   0.25180   0.01267  Uiso   1.00
Br166  Br    0.89645   0.00000   0.24820   0.01267  Uiso   1.00
N167   N     0.52610   0.25000   0.35605   0.01267  Uiso   1.00
N168   N     0.97390   0.25000   0.14395   0.01267  Uiso   1.00
O169   O     0.57385   0.29520   0.28695   0.01267  Uiso   1.00
O170   O     0.55345   0.29490   0.21755   0.01267  Uiso   1.00
O171   O     0.92615   0.29520   0.21305   0.01267  Uiso   1.00
O172   O     0.94655   0.29490   0.28245   0.01267  Uiso   1.00
O173   O     0.92615   0.20480   0.21305   0.01267  Uiso   1.00
O174   O     0.94655   0.20510   0.28245   0.01267  Uiso   1.00
O175   O     0.57385   0.20480   0.28695   0.01267  Uiso   1.00
O176   O     0.55345   0.20510   0.21755   0.01267  Uiso   1.00
Zn177  Zn    0.01348   0.75000   0.29630   0.01267  Uiso   1.00
Zn178  Zn    0.48652   0.75000   0.20370   0.01267  Uiso   1.00
H179   H     0.13863   0.85267   0.32006   0.01267  Uiso   1.00
H180   H     0.20404   0.91697   0.31981   0.01267  Uiso   1.00
H181   H     0.16366   0.91475   0.18245   0.01267  Uiso   1.00
H182   H     0.10196   0.85086   0.18254   0.01267  Uiso   1.00
H183   H     0.36137   0.85267   0.17994   0.01267  Uiso   1.00
H184   H     0.29596   0.91697   0.18019   0.01267  Uiso   1.00
H185   H     0.33634   0.91475   0.31755   0.01267  Uiso   1.00
H186   H     0.39826   0.85055   0.31725   0.01267  Uiso   1.00
H187   H     0.36137   0.64733   0.17994   0.01267  Uiso   1.00
H188   H     0.29596   0.58303   0.18019   0.01267  Uiso   1.00
H189   H     0.33634   0.58525   0.31755   0.01267  Uiso   1.00
H190   H     0.39826   0.64945   0.31725   0.01267  Uiso   1.00
H191   H     0.13863   0.64733   0.32006   0.01267  Uiso   1.00
H192   H     0.20404   0.58303   0.31981   0.01267  Uiso   1.00
H193   H     0.16366   0.58525   0.18245   0.01267  Uiso   1.00
H194   H     0.10196   0.64914   0.18254   0.01267  Uiso   1.00
H195   H     0.42693   0.75000   0.35025   0.01267  Uiso   1.00
H196   H     0.42783   0.75000   0.42938   0.01267  Uiso   1.00
H197   H     0.12133   0.75000   0.37507   0.01267  Uiso   1.00
H198   H     0.08152   0.75000   0.01286   0.01267  Uiso   1.00
H199   H     0.07307   0.75000   0.14975   0.01267  Uiso   1.00
H200   H     0.07217   0.75000   0.07062   0.01267  Uiso   1.00
H201   H     0.37867   0.75000   0.12493   0.01267  Uiso   1.00
H202   H     0.41848   0.75000   0.48714   0.01267  Uiso   1.00
C203   C     0.07760   0.80835   0.25215   0.01267  Uiso   1.00
C204   C     0.11970   0.84725   0.25195   0.01267  Uiso   1.00
C205   C     0.14545   0.86645   0.28890   0.01267  Uiso   1.00
C206   C     0.17970   0.90245   0.28880   0.01267  Uiso   1.00
C207   C     0.18440   0.92095   0.25070   0.01267  Uiso   1.00
C208   C     0.15800   0.90115   0.21395   0.01267  Uiso   1.00
C209   C     0.12510   0.86565   0.21370   0.01267  Uiso   1.00
C210   C     0.22005   0.96125   0.25155   0.01267  Uiso   1.00
C211   C     0.42240   0.80835   0.24785   0.01267  Uiso   1.00
C212   C     0.38030   0.84725   0.24805   0.01267  Uiso   1.00
C213   C     0.35455   0.86645   0.21110   0.01267  Uiso   1.00
C214   C     0.32030   0.90245   0.21120   0.01267  Uiso   1.00
C215   C     0.31560   0.92095   0.24930   0.01267  Uiso   1.00
C216   C     0.34200   0.90115   0.28605   0.01267  Uiso   1.00
C217   C     0.37490   0.86565   0.28630   0.01267  Uiso   1.00
C218   C     0.27995   0.96125   0.24845   0.01267  Uiso   1.00
C219   C     0.42240   0.69165   0.24785   0.01267  Uiso   1.00
C220   C     0.38030   0.65275   0.24805   0.01267  Uiso   1.00
C221   C     0.35455   0.63355   0.21110   0.01267  Uiso   1.00
C222   C     0.32030   0.59755   0.21120   0.01267  Uiso   1.00
C223   C     0.31560   0.57905   0.24930   0.01267  Uiso   1.00
C224   C     0.34200   0.59885   0.28605   0.01267  Uiso   1.00
C225   C     0.37490   0.63435   0.28630   0.01267  Uiso   1.00
C226   C     0.27995   0.53875   0.24845   0.01267  Uiso   1.00
C227   C     0.07760   0.69165   0.25215   0.01267  Uiso   1.00
C228   C     0.11970   0.65275   0.25195   0.01267  Uiso   1.00
C229   C     0.14545   0.63355   0.28890   0.01267  Uiso   1.00
C230   C     0.17970   0.59755   0.28880   0.01267  Uiso   1.00
C231   C     0.18440   0.57905   0.25070   0.01267  Uiso   1.00
C232   C     0.15800   0.59885   0.21395   0.01267  Uiso   1.00
C233   C     0.12510   0.63435   0.21370   0.01267  Uiso   1.00
C234   C     0.22005   0.53875   0.25155   0.01267  Uiso   1.00
C235   C     0.18905   0.50000   0.25160   0.01267  Uiso   1.00
C236   C     0.31095   0.50000   0.24840   0.01267  Uiso   1.00
C237   C     0.47250   0.75000   0.37385   0.01267  Uiso   1.00
C238   C     0.47300   0.75000   0.41780   0.01267  Uiso   1.00
C239   C     0.02630   0.75000   0.44830   0.01267  Uiso   1.00
C240   C     0.07950   0.75000   0.43150   0.01267  Uiso   1.00
C241   C     0.07700   0.75000   0.38770   0.01267  Uiso   1.00
C242   C     0.03350   0.75000   0.49220   0.01267  Uiso   1.00
C243   C     0.13700   0.75000   0.45850   0.01267  Uiso   1.00
C244   C     0.19000   0.75000   0.47700   0.01267  Uiso   1.00
C245   C     0.02750   0.75000   0.12615   0.01267  Uiso   1.00
C246   C     0.02700   0.75000   0.08220   0.01267  Uiso   1.00
C247   C     0.47370   0.75000   0.05170   0.01267  Uiso   1.00
C248   C     0.42050   0.75000   0.06850   0.01267  Uiso   1.00
C249   C     0.42300   0.75000   0.11230   0.01267  Uiso   1.00
C250   C     0.46650   0.75000   0.00780   0.01267  Uiso   1.00
C251   C     0.36300   0.75000   0.04150   0.01267  Uiso   1.00
C252   C     0.31000   0.75000   0.02300   0.01267  Uiso   1.00
Br253  Br    0.10355   0.50000   0.25180   0.01267  Uiso   1.00
Br254  Br    0.39645   0.50000   0.24820   0.01267  Uiso   1.00
N255   N     0.02610   0.75000   0.35605   0.01267  Uiso   1.00
N256   N     0.47390   0.75000   0.14395   0.01267  Uiso   1.00
O257   O     0.07385   0.79520   0.28695   0.01267  Uiso   1.00
O258   O     0.05345   0.79490   0.21755   0.01267  Uiso   1.00
O259   O     0.42615   0.79520   0.21305   0.01267  Uiso   1.00
O260   O     0.44655   0.79490   0.28245   0.01267  Uiso   1.00
O261   O     0.42615   0.70480   0.21305   0.01267  Uiso   1.00
O262   O     0.44655   0.70510   0.28245   0.01267  Uiso   1.00
O263   O     0.07385   0.70480   0.28695   0.01267  Uiso   1.00
O264   O     0.05345   0.70510   0.21755   0.01267  Uiso   1.00
Zn265  Zn    0.51348   0.75000   0.29630   0.01267  Uiso   1.00
Zn266  Zn    0.98652   0.75000   0.20370   0.01267  Uiso   1.00
H267   H     0.63863   0.85267   0.32006   0.01267  Uiso   1.00
H268   H     0.70404   0.91697   0.31981   0.01267  Uiso   1.00
H269   H     0.66366   0.91475   0.18245   0.01267  Uiso   1.00
H270   H     0.60196   0.85086   0.18254   0.01267  Uiso   1.00
H271   H     0.86137   0.85267   0.17994   0.01267  Uiso   1.00
H272   H     0.79596   0.91697   0.18019   0.01267  Uiso   1.00
H273   H     0.83634   0.91475   0.31755   0.01267  Uiso   1.00
H274   H     0.89826   0.85055   0.31725   0.01267  Uiso   1.00
H275   H     0.86137   0.64733   0.17994   0.01267  Uiso   1.00
H276   H     0.79596   0.58303   0.18019   0.01267  Uiso   1.00
H277   H     0.83634   0.58525   0.31755   0.01267  Uiso   1.00
H278   H     0.89826   0.64945   0.31725   0.01267  Uiso   1.00
H279   H     0.63863   0.64733   0.32006   0.01267  Uiso   1.00
H280   H     0.70404   0.58303   0.31981   0.01267  Uiso   1.00
H281   H     0.66366   0.58525   0.18245   0.01267  Uiso   1.00
H282   H     0.60196   0.64914   0.18254   0.01267  Uiso   1.00
H283   H     0.92693   0.75000   0.35025   0.01267  Uiso   1.00
H284   H     0.92783   0.75000   0.42938   0.01267  Uiso   1.00
H285   H     0.62133   0.75000   0.37507   0.01267  Uiso   1.00
H286   H     0.58152   0.75000   0.01286   0.01267  Uiso   1.00
H287   H     0.57307   0.75000   0.14975   0.01267  Uiso   1.00
H288   H     0.57217   0.75000   0.07062   0.01267  Uiso   1.00
H289   H     0.87867   0.75000   0.12493   0.01267  Uiso   1.00
H290   H     0.91848   0.75000   0.48714   0.01267  Uiso   1.00
C291   C     0.57760   0.80835   0.25215   0.01267  Uiso   1.00
C292   C     0.61970   0.84725   0.25195   0.01267  Uiso   1.00
C293   C     0.64545   0.86645   0.28890   0.01267  Uiso   1.00
C294   C     0.67970   0.90245   0.28880   0.01267  Uiso   1.00
C295   C     0.68440   0.92095   0.25070   0.01267  Uiso   1.00
C296   C     0.65800   0.90115   0.21395   0.01267  Uiso   1.00
C297   C     0.62510   0.86565   0.21370   0.01267  Uiso   1.00
C298   C     0.72005   0.96125   0.25155   0.01267  Uiso   1.00
C299   C     0.92240   0.80835   0.24785   0.01267  Uiso   1.00
C300   C     0.88030   0.84725   0.24805   0.01267  Uiso   1.00
C301   C     0.85455   0.86645   0.21110   0.01267  Uiso   1.00
C302   C     0.82030   0.90245   0.21120   0.01267  Uiso   1.00
C303   C     0.81560   0.92095   0.24930   0.01267  Uiso   1.00
C304   C     0.84200   0.90115   0.28605   0.01267  Uiso   1.00
C305   C     0.87490   0.86565   0.28630   0.01267  Uiso   1.00
C306   C     0.77995   0.96125   0.24845   0.01267  Uiso   1.00
C307   C     0.92240   0.69165   0.24785   0.01267  Uiso   1.00
C308   C     0.88030   0.65275   0.24805   0.01267  Uiso   1.00
C309   C     0.85455   0.63355   0.21110   0.01267  Uiso   1.00
C310   C     0.82030   0.59755   0.21120   0.01267  Uiso   1.00
C311   C     0.81560   0.57905   0.24930   0.01267  Uiso   1.00
C312   C     0.84200   0.59885   0.28605   0.01267  Uiso   1.00
C313   C     0.87490   0.63435   0.28630   0.01267  Uiso   1.00
C314   C     0.77995   0.53875   0.24845   0.01267  Uiso   1.00
C315   C     0.57760   0.69165   0.25215   0.01267  Uiso   1.00
C316   C     0.61970   0.65275   0.25195   0.01267  Uiso   1.00
C317   C     0.64545   0.63355   0.28890   0.01267  Uiso   1.00
C318   C     0.67970   0.59755   0.28880   0.01267  Uiso   1.00
C319   C     0.68440   0.57905   0.25070   0.01267  Uiso   1.00
C320   C     0.65800   0.59885   0.21395   0.01267  Uiso   1.00
C321   C     0.62510   0.63435   0.21370   0.01267  Uiso   1.00
C322   C     0.72005   0.53875   0.25155   0.01267  Uiso   1.00
C323   C     0.68905   0.50000   0.25160   0.01267  Uiso   1.00
C324   C     0.81095   0.50000   0.24840   0.01267  Uiso   1.00
C325   C     0.97250   0.75000   0.37385   0.01267  Uiso   1.00
C326   C     0.97300   0.75000   0.41780   0.01267  Uiso   1.00
C327   C     0.52630   0.75000   0.44830   0.01267  Uiso   1.00
C328   C     0.57950   0.75000   0.43150   0.01267  Uiso   1.00
C329   C     0.57700   0.75000   0.38770   0.01267  Uiso   1.00
C330   C     0.53350   0.75000   0.49220   0.01267  Uiso   1.00
C331   C     0.63700   0.75000   0.45850   0.01267  Uiso   1.00
C332   C     0.69000   0.75000   0.47700   0.01267  Uiso   1.00
C333   C     0.52750   0.75000   0.12615   0.01267  Uiso   1.00
C334   C     0.52700   0.75000   0.08220   0.01267  Uiso   1.00
C335   C     0.97370   0.75000   0.05170   0.01267  Uiso   1.00
C336   C     0.92050   0.75000   0.06850   0.01267  Uiso   1.00
C337   C     0.92300   0.75000   0.11230   0.01267  Uiso   1.00
C338   C     0.96650   0.75000   0.00780   0.01267  Uiso   1.00
C339   C     0.86300   0.75000   0.04150   0.01267  Uiso   1.00
C340   C     0.81000   0.75000   0.02300   0.01267  Uiso   1.00
Br341  Br    0.60355   0.50000   0.25180   0.01267  Uiso   1.00
Br342  Br    0.89645   0.50000   0.24820   0.01267  Uiso   1.00
N343   N     0.52610   0.75000   0.35605   0.01267  Uiso   1.00
N344   N     0.97390   0.75000   0.14395   0.01267  Uiso   1.00
O345   O     0.57385   0.79520   0.28695   0.01267  Uiso   1.00
O346   O     0.55345   0.79490   0.21755   0.01267  Uiso   1.00
O347   O     0.92615   0.79520   0.21305   0.01267  Uiso   1.00
O348   O     0.94655   0.79490   0.28245   0.01267  Uiso   1.00
O349   O     0.92615   0.70480   0.21305   0.01267  Uiso   1.00
O350   O     0.94655   0.70510   0.28245   0.01267  Uiso   1.00
O351   O     0.57385   0.70480   0.28695   0.01267  Uiso   1.00
O352   O     0.55345   0.70510   0.21755   0.01267  Uiso   1.00
Zn353  Zn    0.01348   0.25000   0.79630   0.01267  Uiso   1.00
Zn354  Zn    0.48652   0.25000   0.70370   0.01267  Uiso   1.00
H355   H     0.13863   0.35267   0.82006   0.01267  Uiso   1.00
H356   H     0.20404   0.41697   0.81981   0.01267  Uiso   1.00
H357   H     0.16366   0.41475   0.68245   0.01267  Uiso   1.00
H358   H     0.10196   0.35086   0.68254   0.01267  Uiso   1.00
H359   H     0.36137   0.35267   0.67994   0.01267  Uiso   1.00
H360   H     0.29596   0.41697   0.68019   0.01267  Uiso   1.00
H361   H     0.33634   0.41475   0.81755   0.01267  Uiso   1.00
H362   H     0.39826   0.35055   0.81725   0.01267  Uiso   1.00
H363   H     0.36137   0.14733   0.67994   0.01267  Uiso   1.00
H364   H     0.29596   0.08303   0.68019   0.01267  Uiso   1.00
H365   H     0.33634   0.08525   0.81755   0.01267  Uiso   1.00
H366   H     0.39826   0.14945   0.81725   0.01267  Uiso   1.00
H367   H     0.13863   0.14733   0.82006   0.01267  Uiso   1.00
H368   H     0.20404   0.08303   0.81981   0.01267  Uiso   1.00
H369   H     0.16366   0.08525   0.68245   0.01267  Uiso   1.00
H370   H     0.10196   0.14914   0.68254   0.01267  Uiso   1.00
H371   H     0.42693   0.25000   0.85025   0.01267  Uiso   1.00
H372   H     0.42783   0.25000   0.92938   0.01267  Uiso   1.00
H373   H     0.12133   0.25000   0.87507   0.01267  Uiso   1.00
H374   H     0.08152   0.25000   0.51286   0.01267  Uiso   1.00
H375   H     0.07307   0.25000   0.64975   0.01267  Uiso   1.00
H376   H     0.07217   0.25000   0.57062   0.01267  Uiso   1.00
H377   H     0.37867   0.25000   0.62493   0.01267  Uiso   1.00
H378   H     0.41848   0.25000   0.98714   0.01267  Uiso   1.00
C379   C     0.07760   0.30835   0.75215   0.01267  Uiso   1.00
C380   C     0.11970   0.34725   0.75195   0.01267  Uiso   1.00
C381   C     0.14545   0.36645   0.78890   0.01267  Uiso   1.00
C382   C     0.17970   0.40245   0.78880   0.01267  Uiso   1.00
C383   C     0.18440   0.42095   0.75070   0.01267  Uiso   1.00
C384   C     0.15800   0.40115   0.71395   0.01267  Uiso   1.00
C385   C     0.12510   0.36565   0.71370   0.01267  Uiso   1.00
C386   C     0.22005   0.46125   0.75155   0.01267  Uiso   1.00
C387   C     0.42240   0.30835   0.74785   0.01267  Uiso   1.00
C388   C     0.38030   0.34725   0.74805   0.01267  Uiso   1.00
C389   C     0.35455   0.36645   0.71110   0.01267  Uiso   1.00
C390   C     0.32030   0.40245   0.71120   0.01267  Uiso   1.00
C391   C     0.31560   0.42095   0.74930   0.01267  Uiso   1.00
C392   C     0.34200   0.40115   0.78605   0.01267  Uiso   1.00
C393   C     0.37490   0.36565   0.78630   0.01267  Uiso   1.00
C394   C     0.27995   0.46125   0.74845   0.01267  Uiso   1.00
C395   C     0.42240   0.19165   0.74785   0.01267  Uiso   1.00
C396   C     0.38030   0.15275   0.74805   0.01267  Uiso   1.00
C397   C     0.35455   0.13355   0.71110   0.01267  Uiso   1.00
C398   C     0.32030   0.09755   0.71120   0.01267  Uiso   1.00
C399   C     0.31560   0.07905   0.74930   0.01267  Uiso   1.00
C400   C     0.34200   0.09885   0.78605   0.01267  Uiso   1.00
C401   C     0.37490   0.13435   0.78630   0.01267  Uiso   1.00
C402   C     0.27995   0.03875   0.74845   0.01267  Uiso   1.00
C403   C     0.07760   0.19165   0.75215   0.01267  Uiso   1.00
C404   C     0.11970   0.15275   0.75195   0.01267  Uiso   1.00
C405   C     0.14545   0.13355   0.78890   0.01267  Uiso   1.00
C406   C     0.17970   0.09755   0.78880   0.01267  Uiso   1.00
C407   C     0.18440   0.07905   0.75070   0.01267  Uiso   1.00
C408   C     0.15800   0.09885   0.71395   0.01267  Uiso   1.00
C409   C     0.12510   0.13435   0.71370   0.01267  Uiso   1.00
C410   C     0.22005   0.03875   0.75155   0.01267  Uiso   1.00
C411   C     0.18905   0.00000   0.75160   0.01267  Uiso   1.00
C412   C     0.31095   0.00000   0.74840   0.01267  Uiso   1.00
C413   C     0.47250   0.25000   0.87385   0.01267  Uiso   1.00
C414   C     0.47300   0.25000   0.91780   0.01267  Uiso   1.00
C415   C     0.02630   0.25000   0.94830   0.01267  Uiso   1.00
C416   C     0.07950   0.25000   0.93150   0.01267  Uiso   1.00
C417   C     0.07700   0.25000   0.88770   0.01267  Uiso   1.00
C418   C     0.03350   0.25000   0.99220   0.01267  Uiso   1.00
C419   C     0.13700   0.25000   0.95850   0.01267  Uiso   1.00
C420   C     0.19000   0.25000   0.97700   0.01267  Uiso   1.00
C421   C     0.02750   0.25000   0.62615   0.01267  Uiso   1.00
C422   C     0.02700   0.25000   0.58220   0.01267  Uiso   1.00
C423   C     0.47370   0.25000   0.55170   0.01267  Uiso   1.00
C424   C     0.42050   0.25000   0.56850   0.01267  Uiso   1.00
C425   C     0.42300   0.25000   0.61230   0.01267  Uiso   1.00
C426   C     0.46650   0.25000   0.50780   0.01267  Uiso   1.00
C427   C     0.36300   0.25000   0.54150   0.01267  Uiso   1.00
C428   C     0.31000   0.25000   0.52300   0.01267  Uiso   1.00
Br429  Br    0.10355   0.00000   0.75180   0.01267  Uiso   1.00
Br430  Br    0.39645   0.00000   0.74820   0.01267  Uiso   1.00
N431   N     0.02610   0.25000   0.85605   0.01267  Uiso   1.00
N432   N     0.47390   0.25000   0.64395   0.01267  Uiso   1.00
O433   O     0.07385   0.29520   0.78695   0.01267  Uiso   1.00
O434   O     0.05345   0.29490   0.71755   0.01267  Uiso   1.00
O435   O     0.42615   0.29520   0.71305   0.01267  Uiso   1.00
O436   O     0.44655   0.29490   0.78245   0.01267  Uiso   1.00
O437   O     0.42615   0.20480   0.71305   0.01267  Uiso   1.00
O438   O     0.44655   0.20510   0.78245   0.01267  Uiso   1.00
O439   O     0.07385   0.20480   0.78695   0.01267  Uiso   1.00
O440   O     0.05345   0.20510   0.71755   0.01267  Uiso   1.00
Zn441  Zn    0.51348   0.25000   0.79630   0.01267  Uiso   1.00
Zn442  Zn    0.98652   0.25000   0.70370   0.01267  Uiso   1.00
H443   H     0.63863   0.35267   0.82006   0.01267  Uiso   1.00
H444   H     0.70404   0.41697   0.81981   0.01267  Uiso   1.00
H445   H     0.66366   0.41475   0.68245   0.01267  Uiso   1.00
H446   H     0.60196   0.35086   0.68254   0.01267  Uiso   1.00
H447   H     0.86137   0.35267   0.67994   0.01267  Uiso   1.00
H448   H     0.79596   0.41697   0.68019   0.01267  Uiso   1.00
H449   H     0.83634   0.41475   0.81755   0.01267  Uiso   1.00
H450   H     0.89826   0.35055   0.81725   0.01267  Uiso   1.00
H451   H     0.86137   0.14733   0.67994   0.01267  Uiso   1.00
H452   H     0.79596   0.08303   0.68019   0.01267  Uiso   1.00
H453   H     0.83634   0.08525   0.81755   0.01267  Uiso   1.00
H454   H     0.89826   0.14945   0.81725   0.01267  Uiso   1.00
H455   H     0.63863   0.14733   0.82006   0.01267  Uiso   1.00
H456   H     0.70404   0.08303   0.81981   0.01267  Uiso   1.00
H457   H     0.66366   0.08525   0.68245   0.01267  Uiso   1.00
H458   H     0.60196   0.14914   0.68254   0.01267  Uiso   1.00
H459   H     0.92693   0.25000   0.85025   0.01267  Uiso   1.00
H460   H     0.92783   0.25000   0.92938   0.01267  Uiso   1.00
H461   H     0.62133   0.25000   0.87507   0.01267  Uiso   1.00
H462   H     0.58152   0.25000   0.51286   0.01267  Uiso   1.00
H463   H     0.57307   0.25000   0.64975   0.01267  Uiso   1.00
H464   H     0.57217   0.25000   0.57062   0.01267  Uiso   1.00
H465   H     0.87867   0.25000   0.62493   0.01267  Uiso   1.00
H466   H     0.91848   0.25000   0.98714   0.01267  Uiso   1.00
C467   C     0.57760   0.30835   0.75215   0.01267  Uiso   1.00
C468   C     0.61970   0.34725   0.75195   0.01267  Uiso   1.00
C469   C     0.64545   0.36645   0.78890   0.01267  Uiso   1.00
C470   C     0.67970   0.40245   0.78880   0.01267  Uiso   1.00
C471   C     0.68440   0.42095   0.75070   0.01267  Uiso   1.00
C472   C     0.65800   0.40115   0.71395   0.01267  Uiso   1.00
C473   C     0.62510   0.36565   0.71370   0.01267  Uiso   1.00
C474   C     0.72005   0.46125   0.75155   0.01267  Uiso   1.00
C475   C     0.92240   0.30835   0.74785   0.01267  Uiso   1.00
C476   C     0.88030   0.34725   0.74805   0.01267  Uiso   1.00
C477   C     0.85455   0.36645   0.71110   0.01267  Uiso   1.00
C478   C     0.82030   0.40245   0.71120   0.01267  Uiso   1.00
C479   C     0.81560   0.42095   0.74930   0.01267  Uiso   1.00
C480   C     0.84200   0.40115   0.78605   0.01267  Uiso   1.00
C481   C     0.87490   0.36565   0.78630   0.01267  Uiso   1.00
C482   C     0.77995   0.46125   0.74845   0.01267  Uiso   1.00
C483   C     0.92240   0.19165   0.74785   0.01267  Uiso   1.00
C484   C     0.88030   0.15275   0.74805   0.01267  Uiso   1.00
C485   C     0.85455   0.13355   0.71110   0.01267  Uiso   1.00
C486   C     0.82030   0.09755   0.71120   0.01267  Uiso   1.00
C487   C     0.81560   0.07905   0.74930   0.01267  Uiso   1.00
C488   C     0.84200   0.09885   0.78605   0.01267  Uiso   1.00
C489   C     0.87490   0.13435   0.78630   0.01267  Uiso   1.00
C490   C     0.77995   0.03875   0.74845   0.01267  Uiso   1.00
C491   C     0.57760   0.19165   0.75215   0.01267  Uiso   1.00
C492   C     0.61970   0.15275   0.75195   0.01267  Uiso   1.00
C493   C     0.64545   0.13355   0.78890   0.01267  Uiso   1.00
C494   C     0.67970   0.09755   0.78880   0.01267  Uiso   1.00
C495   C     0.68440   0.07905   0.75070   0.01267  Uiso   1.00
C496   C     0.65800   0.09885   0.71395   0.01267  Uiso   1.00
C497   C     0.62510   0.13435   0.71370   0.01267  Uiso   1.00
C498   C     0.72005   0.03875   0.75155   0.01267  Uiso   1.00
C499   C     0.68905   0.00000   0.75160   0.01267  Uiso   1.00
C500   C     0.81095   0.00000   0.74840   0.01267  Uiso   1.00
C501   C     0.97250   0.25000   0.87385   0.01267  Uiso   1.00
C502   C     0.97300   0.25000   0.91780   0.01267  Uiso   1.00
C503   C     0.52630   0.25000   0.94830   0.01267  Uiso   1.00
C504   C     0.57950   0.25000   0.93150   0.01267  Uiso   1.00
C505   C     0.57700   0.25000   0.88770   0.01267  Uiso   1.00
C506   C     0.53350   0.25000   0.99220   0.01267  Uiso   1.00
C507   C     0.63700   0.25000   0.95850   0.01267  Uiso   1.00
C508   C     0.69000   0.25000   0.97700   0.01267  Uiso   1.00
C509   C     0.52750   0.25000   0.62615   0.01267  Uiso   1.00
C510   C     0.52700   0.25000   0.58220   0.01267  Uiso   1.00
C511   C     0.97370   0.25000   0.55170   0.01267  Uiso   1.00
C512   C     0.92050   0.25000   0.56850   0.01267  Uiso   1.00
C513   C     0.92300   0.25000   0.61230   0.01267  Uiso   1.00
C514   C     0.96650   0.25000   0.50780   0.01267  Uiso   1.00
C515   C     0.86300   0.25000   0.54150   0.01267  Uiso   1.00
C516   C     0.81000   0.25000   0.52300   0.01267  Uiso   1.00
Br517  Br    0.60355   0.00000   0.75180   0.01267  Uiso   1.00
Br518  Br    0.89645   0.00000   0.74820   0.01267  Uiso   1.00
N519   N     0.52610   0.25000   0.85605   0.01267  Uiso   1.00
N520   N     0.97390   0.25000   0.64395   0.01267  Uiso   1.00
O521   O     0.57385   0.29520   0.78695   0.01267  Uiso   1.00
O522   O     0.55345   0.29490   0.71755   0.01267  Uiso   1.00
O523   O     0.92615   0.29520   0.71305   0.01267  Uiso   1.00
O524   O     0.94655   0.29490   0.78245   0.01267  Uiso   1.00
O525   O     0.92615   0.20480   0.71305   0.01267  Uiso   1.00
O526   O     0.94655   0.20510   0.78245   0.01267  Uiso   1.00
O527   O     0.57385   0.20480   0.78695   0.01267  Uiso   1.00
O528   O     0.55345   0.20510   0.71755   0.01267  Uiso   1.00
Zn529  Zn    0.01348   0.75000   0.79630   0.01267  Uiso   1.00
Zn530  Zn    0.48652   0.75000   0.70370   0.01267  Uiso   1.00
H531   H     0.13863   0.85267   0.82006   0.01267  Uiso   1.00
H532   H     0.20404   0.91697   0.81981   0.01267  Uiso   1.00
H533   H     0.16366   0.91475   0.68245   0.01267  Uiso   1.00
H534   H     0.10196   0.85086   0.68254   0.01267  Uiso   1.00
H535   H     0.36137   0.85267   0.67994   0.01267  Uiso   1.00
H536   H     0.29596   0.91697   0.68019   0.01267  Uiso   1.00
H537   H     0.33634   0.91475   0.81755   0.01267  Uiso   1.00
H538   H     0.39826   0.85055   0.81725   0.01267  Uiso   1.00
H539   H     0.36137   0.64733   0.67994   0.01267  Uiso   1.00
H540   H     0.29596   0.58303   0.68019   0.01267  Uiso   1.00
H541   H     0.33634   0.58525   0.81755   0.01267  Uiso   1.00
H542   H     0.39826   0.64945   0.81725   0.01267  Uiso   1.00
H543   H     0.13863   0.64733   0.82006   0.01267  Uiso   1.00
H544   H     0.20404   0.58303   0.81981   0.01267  Uiso   1.00
H545   H     0.16366   0.58525   0.68245   0.01267  Uiso   1.00
H546   H     0.10196   0.64914   0.68254   0.01267  Uiso   1.00
H547   H     0.42693   0.75000   0.85025   0.01267  Uiso   1.00
H548   H     0.42783   0.75000   0.92938   0.01267  Uiso   1.00
H549   H     0.12133   0.75000   0.87507   0.01267  Uiso   1.00
H550   H     0.08152   0.75000   0.51286   0.01267  Uiso   1.00
H551   H     0.07307   0.75000   0.64975   0.01267  Uiso   1.00
H552   H     0.07217   0.75000   0.57062   0.01267  Uiso   1.00
H553   H     0.37867   0.75000   0.62493   0.01267  Uiso   1.00
H554   H     0.41848   0.75000   0.98714   0.01267  Uiso   1.00
C555   C     0.07760   0.80835   0.75215   0.01267  Uiso   1.00
C556   C     0.11970   0.84725   0.75195   0.01267  Uiso   1.00
C557   C     0.14545   0.86645   0.78890   0.01267  Uiso   1.00
C558   C     0.17970   0.90245   0.78880   0.01267  Uiso   1.00
C559   C     0.18440   0.92095   0.75070   0.01267  Uiso   1.00
C560   C     0.15800   0.90115   0.71395   0.01267  Uiso   1.00
C561   C     0.12510   0.86565   0.71370   0.01267  Uiso   1.00
C562   C     0.22005   0.96125   0.75155   0.01267  Uiso   1.00
C563   C     0.42240   0.80835   0.74785   0.01267  Uiso   1.00
C564   C     0.38030   0.84725   0.74805   0.01267  Uiso   1.00
C565   C     0.35455   0.86645   0.71110   0.01267  Uiso   1.00
C566   C     0.32030   0.90245   0.71120   0.01267  Uiso   1.00
C567   C     0.31560   0.92095   0.74930   0.01267  Uiso   1.00
C568   C     0.34200   0.90115   0.78605   0.01267  Uiso   1.00
C569   C     0.37490   0.86565   0.78630   0.01267  Uiso   1.00
C570   C     0.27995   0.96125   0.74845   0.01267  Uiso   1.00
C571   C     0.42240   0.69165   0.74785   0.01267  Uiso   1.00
C572   C     0.38030   0.65275   0.74805   0.01267  Uiso   1.00
C573   C     0.35455   0.63355   0.71110   0.01267  Uiso   1.00
C574   C     0.32030   0.59755   0.71120   0.01267  Uiso   1.00
C575   C     0.31560   0.57905   0.74930   0.01267  Uiso   1.00
C576   C     0.34200   0.59885   0.78605   0.01267  Uiso   1.00
C577   C     0.37490   0.63435   0.78630   0.01267  Uiso   1.00
C578   C     0.27995   0.53875   0.74845   0.01267  Uiso   1.00
C579   C     0.07760   0.69165   0.75215   0.01267  Uiso   1.00
C580   C     0.11970   0.65275   0.75195   0.01267  Uiso   1.00
C581   C     0.14545   0.63355   0.78890   0.01267  Uiso   1.00
C582   C     0.17970   0.59755   0.78880   0.01267  Uiso   1.00
C583   C     0.18440   0.57905   0.75070   0.01267  Uiso   1.00
C584   C     0.15800   0.59885   0.71395   0.01267  Uiso   1.00
C585   C     0.12510   0.63435   0.71370   0.01267  Uiso   1.00
C586   C     0.22005   0.53875   0.75155   0.01267  Uiso   1.00
C587   C     0.18905   0.50000   0.75160   0.01267  Uiso   1.00
C588   C     0.31095   0.50000   0.74840   0.01267  Uiso   1.00
C589   C     0.47250   0.75000   0.87385   0.01267  Uiso   1.00
C590   C     0.47300   0.75000   0.91780   0.01267  Uiso   1.00
C591   C     0.02630   0.75000   0.94830   0.01267  Uiso   1.00
C592   C     0.07950   0.75000   0.93150   0.01267  Uiso   1.00
C593   C     0.07700   0.75000   0.88770   0.01267  Uiso   1.00
C594   C     0.03350   0.75000   0.99220   0.01267  Uiso   1.00
C595   C     0.13700   0.75000   0.95850   0.01267  Uiso   1.00
C596   C     0.19000   0.75000   0.97700   0.01267  Uiso   1.00
C597   C     0.02750   0.75000   0.62615   0.01267  Uiso   1.00
C598   C     0.02700   0.75000   0.58220   0.01267  Uiso   1.00
C599   C     0.47370   0.75000   0.55170   0.01267  Uiso   1.00
C600   C     0.42050   0.75000   0.56850   0.01267  Uiso   1.00
C601   C     0.42300   0.75000   0.61230   0.01267  Uiso   1.00
C602   C     0.46650   0.75000   0.50780   0.01267  Uiso   1.00
C603   C     0.36300   0.75000   0.54150   0.01267  Uiso   1.00
C604   C     0.31000   0.75000   0.52300   0.01267  Uiso   1.00
Br605  Br    0.10355   0.50000   0.75180   0.01267  Uiso   1.00
Br606  Br    0.39645   0.50000   0.74820   0.01267  Uiso   1.00
N607   N     0.02610   0.75000   0.85605   0.01267  Uiso   1.00
N608   N     0.47390   0.75000   0.64395   0.01267  Uiso   1.00
O609   O     0.07385   0.79520   0.78695   0.01267  Uiso   1.00
O610   O     0.05345   0.79490   0.71755   0.01267  Uiso   1.00
O611   O     0.42615   0.79520   0.71305   0.01267  Uiso   1.00
O612   O     0.44655   0.79490   0.78245   0.01267  Uiso   1.00
O613   O     0.42615   0.70480   0.71305   0.01267  Uiso   1.00
O614   O     0.44655   0.70510   0.78245   0.01267  Uiso   1.00
O615   O     0.07385   0.70480   0.78695   0.01267  Uiso   1.00
O616   O     0.05345   0.70510   0.71755   0.01267  Uiso   1.00
Zn617  Zn    0.51348   0.75000   0.79630   0.01267  Uiso   1.00
Zn618  Zn    0.98652   0.75000   0.70370   0.01267  Uiso   1.00
H619   H     0.63863   0.85267   0.82006   0.01267  Uiso   1.00
H620   H     0.70404   0.91697   0.81981   0.01267  Uiso   1.00
H621   H     0.66366   0.91475   0.68245   0.01267  Uiso   1.00
H622   H     0.60196   0.85086   0.68254   0.01267  Uiso   1.00
H623   H     0.86137   0.85267   0.67994   0.01267  Uiso   1.00
H624   H     0.79596   0.91697   0.68019   0.01267  Uiso   1.00
H625   H     0.83634   0.91475   0.81755   0.01267  Uiso   1.00
H626   H     0.89826   0.85055   0.81725   0.01267  Uiso   1.00
H627   H     0.86137   0.64733   0.67994   0.01267  Uiso   1.00
H628   H     0.79596   0.58303   0.68019   0.01267  Uiso   1.00
H629   H     0.83634   0.58525   0.81755   0.01267  Uiso   1.00
H630   H     0.89826   0.64945   0.81725   0.01267  Uiso   1.00
H631   H     0.63863   0.64733   0.82006   0.01267  Uiso   1.00
H632   H     0.70404   0.58303   0.81981   0.01267  Uiso   1.00
H633   H     0.66366   0.58525   0.68245   0.01267  Uiso   1.00
H634   H     0.60196   0.64914   0.68254   0.01267  Uiso   1.00
H635   H     0.92693   0.75000   0.85025   0.01267  Uiso   1.00
H636   H     0.92783   0.75000   0.92938   0.01267  Uiso   1.00
H637   H     0.62133   0.75000   0.87507   0.01267  Uiso   1.00
H638   H     0.58152   0.75000   0.51286   0.01267  Uiso   1.00
H639   H     0.57307   0.75000   0.64975   0.01267  Uiso   1.00
H640   H     0.57217   0.75000   0.57062   0.01267  Uiso   1.00
H641   H     0.87867   0.75000   0.62493   0.01267  Uiso   1.00
H642   H     0.91848   0.75000   0.98714   0.01267  Uiso   1.00
C643   C     0.57760   0.80835   0.75215   0.01267  Uiso   1.00
C644   C     0.61970   0.84725   0.75195   0.01267  Uiso   1.00
C645   C     0.64545   0.86645   0.78890   0.01267  Uiso   1.00
C646   C     0.67970   0.90245   0.78880   0.01267  Uiso   1.00
C647   C     0.68440   0.92095   0.75070   0.01267  Uiso   1.00
C648   C     0.65800   0.90115   0.71395   0.01267  Uiso   1.00
C649   C     0.62510   0.86565   0.71370   0.01267  Uiso   1.00
C650   C     0.72005   0.96125   0.75155   0.01267  Uiso   1.00
C651   C     0.92240   0.80835   0.74785   0.01267  Uiso   1.00
C652   C     0.88030   0.84725   0.74805   0.01267  Uiso   1.00
C653   C     0.85455   0.86645   0.71110   0.01267  Uiso   1.00
C654   C     0.82030   0.90245   0.71120   0.01267  Uiso   1.00
C655   C     0.81560   0.92095   0.74930   0.01267  Uiso   1.00
C656   C     0.84200   0.90115   0.78605   0.01267  Uiso   1.00
C657   C     0.87490   0.86565   0.78630   0.01267  Uiso   1.00
C658   C     0.77995   0.96125   0.74845   0.01267  Uiso   1.00
C659   C     0.92240   0.69165   0.74785   0.01267  Uiso   1.00
C660   C     0.88030   0.65275   0.74805   0.01267  Uiso   1.00
C661   C     0.85455   0.63355   0.71110   0.01267  Uiso   1.00
C662   C     0.82030   0.59755   0.71120   0.01267  Uiso   1.00
C663   C     0.81560   0.57905   0.74930   0.01267  Uiso   1.00
C664   C     0.84200   0.59885   0.78605   0.01267  Uiso   1.00
C665   C     0.87490   0.63435   0.78630   0.01267  Uiso   1.00
C666   C     0.77995   0.53875   0.74845   0.01267  Uiso   1.00
C667   C     0.57760   0.69165   0.75215   0.01267  Uiso   1.00
C668   C     0.61970   0.65275   0.75195   0.01267  Uiso   1.00
C669   C     0.64545   0.63355   0.78890   0.01267  Uiso   1.00
C670   C     0.67970   0.59755   0.78880   0.01267  Uiso   1.00
C671   C     0.68440   0.57905   0.75070   0.01267  Uiso   1.00
C672   C     0.65800   0.59885   0.71395   0.01267  Uiso   1.00
C673   C     0.62510   0.63435   0.71370   0.01267  Uiso   1.00
C674   C     0.72005   0.53875   0.75155   0.01267  Uiso   1.00
C675   C     0.68905   0.50000   0.75160   0.01267  Uiso   1.00
C676   C     0.81095   0.50000   0.74840   0.01267  Uiso   1.00
C677   C     0.97250   0.75000   0.87385   0.01267  Uiso   1.00
C678   C     0.97300   0.75000   0.91780   0.01267  Uiso   1.00
C679   C     0.52630   0.75000   0.94830   0.01267  Uiso   1.00
C680   C     0.57950   0.75000   0.93150   0.01267  Uiso   1.00
C681   C     0.57700   0.75000   0.88770   0.01267  Uiso   1.00
C682   C     0.53350   0.75000   0.99220   0.01267  Uiso   1.00
C683   C     0.63700   0.75000   0.95850   0.01267  Uiso   1.00
C684   C     0.69000   0.75000   0.97700   0.01267  Uiso   1.00
C685   C     0.52750   0.75000   0.62615   0.01267  Uiso   1.00
C686   C     0.52700   0.75000   0.58220   0.01267  Uiso   1.00
C687   C     0.97370   0.75000   0.55170   0.01267  Uiso   1.00
C688   C     0.92050   0.75000   0.56850   0.01267  Uiso   1.00
C689   C     0.92300   0.75000   0.61230   0.01267  Uiso   1.00
C690   C     0.96650   0.75000   0.50780   0.01267  Uiso   1.00
C691   C     0.86300   0.75000   0.54150   0.01267  Uiso   1.00
C692   C     0.81000   0.75000   0.52300   0.01267  Uiso   1.00
Br693  Br    0.60355   0.50000   0.75180   0.01267  Uiso   1.00
Br694  Br    0.89645   0.50000   0.74820   0.01267  Uiso   1.00
N695   N     0.52610   0.75000   0.85605   0.01267  Uiso   1.00
N696   N     0.97390   0.75000   0.64395   0.01267  Uiso   1.00
O697   O     0.57385   0.79520   0.78695   0.01267  Uiso   1.00
O698   O     0.55345   0.79490   0.71755   0.01267  Uiso   1.00
O699   O     0.92615   0.79520   0.71305   0.01267  Uiso   1.00
O700   O     0.94655   0.79490   0.78245   0.01267  Uiso   1.00
O701   O     0.92615   0.70480   0.71305   0.01267  Uiso   1.00
O702   O     0.94655   0.70510   0.78245   0.01267  Uiso   1.00
O703   O     0.57385   0.70480   0.78695   0.01267  Uiso   1.00
O704   O     0.55345   0.70510   0.71755   0.01267  Uiso   1.00
H705   H     0.23997   0.25000   0.49444   0.00000  Uiso   1.00
H706   H     0.26003   0.25000   0.00556   0.00000  Uiso   1.00
H707   H     0.73997   0.25000   0.49444   0.00000  Uiso   1.00
H708   H     0.76003   0.25000   0.00556   0.00000  Uiso   1.00
H709   H     0.23997   0.75000   0.49444   0.00000  Uiso   1.00
H710   H     0.26003   0.75000   0.00556   0.00000  Uiso   1.00
H711   H     0.73997   0.75000   0.49444   0.00000  Uiso   1.00
H712   H     0.76003   0.75000   0.00556   0.00000  Uiso   1.00
H713   H     0.23997   0.25000   0.99444   0.00000  Uiso   1.00
H714   H     0.26003   0.25000   0.50556   0.00000  Uiso   1.00
H715   H     0.73997   0.25000   0.99444   0.00000  Uiso   1.00
H716   H     0.76003   0.25000   0.50556   0.00000  Uiso   1.00
H717   H     0.23997   0.75000   0.99444   0.00000  Uiso   1.00
H718   H     0.26003   0.75000   0.50556   0.00000  Uiso   1.00
H719   H     0.73997   0.75000   0.99444   0.00000  Uiso   1.00
H720   H     0.76003   0.75000   0.50556   0.00000  Uiso   1.00
loop_
_geom_bond_atom_site_label_1
_geom_bond_atom_site_label_2
_geom_bond_distance
_geom_bond_site_symmetry_2
_ccdc_geom_bond_type
Zn1    N79     1.902   .     S
Zn1    O81     2.031   .     S
Zn1    O87     2.031   .     S
Zn1    O172    2.046   1_455 S
Zn1    O174    2.046   1_455 S
Zn2    N80     1.902   .     S
Zn2    O170    2.046   .     S
Zn2    O83     2.031   .     S
Zn2    O85     2.031   .     S
Zn2    O176    2.046   .     S
H3     C29     1.140   .     S
H4     C30     1.140   .     S
H5     C32     1.140   .     S
H6     C33     1.140   .     S
H7     C37     1.140   .     S
H8     C38     1.140   .     S
H9     C40     1.140   .     S
H10    C41     1.140   .     S
H11    C45     1.140   .     S
H12    C46     1.140   .     S
H13    C48     1.140   .     S
H14    C49     1.140   .     S
H15    C53     1.140   .     S
H16    C54     1.140   .     S
H17    C56     1.140   .     S
H18    C57     1.140   .     S
H19    C61     1.140   .     S
H20    C62     1.140   .     S
H21    C65     1.140   .     S
H22    C418    1.140   1_554 S
H23    C69     1.140   .     S
H24    C70     1.140   .     S
H25    C73     1.140   .     S
H26    C426    1.140   .     S
C27    C28     1.552   .     S
C27    O81     1.223   .     A
C27    O82     1.220   .     A
C28    C29     1.365   .     A
C28    C33     1.399   .     A
C29    C30     1.376   .     A
C30    C31     1.392   .     A
C31    C32     1.372   .     A
C31    C34     1.505   .     S
C32    C33     1.345   .     A
C34    C42     1.354   .     A
C34    C235    1.413   .     A
C35    C36     1.552   .     S
C35    O83     1.223   .     A
C35    O84     1.220   .     A
C36    C37     1.365   .     A
C36    C41     1.399   .     A
C37    C38     1.376   .     A
C38    C39     1.392   .     A
C39    C40     1.372   .     A
C39    C42     1.505   .     S
C40    C41     1.345   .     A
C42    C236    1.413   .     A
C43    C44     1.552   .     S
C43    O85     1.223   .     A
C43    O86     1.220   .     A
C44    C45     1.365   .     A
C44    C49     1.399   .     A
C45    C46     1.376   .     A
C46    C47     1.392   .     A
C47    C48     1.372   .     A
C47    C50     1.505   .     S
C48    C49     1.345   .     A
C50    C58     1.354   .     A
C50    C60     1.413   .     A
C51    C52     1.552   .     S
C51    O87     1.223   .     A
C51    O88     1.220   .     A
C52    C53     1.365   .     A
C52    C57     1.399   .     A
C53    C54     1.376   .     A
C54    C55     1.392   .     A
C55    C56     1.372   .     A
C55    C58     1.505   .     S
C56    C57     1.345   .     A
C58    C59     1.413   .     A
C59    Br77    1.900   .     S
C59    C210    1.413   1_545 S
C60    Br78    1.900   .     S
C60    C218    1.413   1_545 S
C61    C62     1.424   .     A
C61    N167    1.424   .     A
C62    C151    1.382   .     A
C63    C64     1.397   .     A
C63    C66     1.401   .     S
C63    C150    1.382   1_455 S
C64    C65     1.411   .     A
C64    C67     1.396   .     S
C65    N79     1.366   .     A
C66    H374    1.140   .     S
C66    C514    1.665   1_455 S
C67    C68     1.209   .     T
C68    H705    1.140   .     S
C69    C70     1.424   .     A
C69    N168    1.424   1_455 S
C70    C159    1.382   1_455 S
C71    C158    1.382   .     A
C71    C72     1.397   .     A
C71    C74     1.401   .     S
C72    C73     1.411   .     A
C72    C75     1.396   .     S
C73    N80     1.366   .     A
C74    H378    1.140   1_554 S
C74    C506    1.665   1_554 S
C75    C76     1.209   .     T
C76    H706    1.140   .     S
N79    C149    1.424   1_455 S
N80    C157    1.424   .     A
O82    Zn90    2.046   1_455 S
O84    Zn89    2.046   .     S
O86    Zn89    2.046   .     S
O88    Zn90    2.046   1_455 S
Zn89   N167    1.902   .     S
Zn89   O169    2.031   .     S
Zn89   O175    2.031   .     S
Zn90   N168    1.902   .     S
Zn90   O171    2.031   .     S
Zn90   O173    2.031   .     S
Zn90   O82     2.046   1_655 S
Zn90   O88     2.046   1_655 S
H91    C117    1.140   .     S
H92    C118    1.140   .     S
H93    C120    1.140   .     S
H94    C121    1.140   .     S
H95    C125    1.140   .     S
H96    C126    1.140   .     S
H97    C128    1.140   .     S
H98    C129    1.140   .     S
H99    C133    1.140   .     S
H100   C134    1.140   .     S
H101   C136    1.140   .     S
H102   C137    1.140   .     S
H103   C141    1.140   .     S
H104   C142    1.140   .     S
H105   C144    1.140   .     S
H106   C145    1.140   .     S
H107   C149    1.140   .     S
H108   C150    1.140   .     S
H109   C153    1.140   .     S
H110   C506    1.140   1_554 S
H111   C157    1.140   .     S
H112   C158    1.140   .     S
H113   C161    1.140   .     S
H114   C514    1.140   .     S
C115   C116    1.552   .     S
C115   O169    1.223   .     A
C115   O170    1.220   .     A
C116   C117    1.365   .     A
C116   C121    1.399   .     A
C117   C118    1.376   .     A
C118   C119    1.392   .     A
C119   C120    1.372   .     A
C119   C122    1.505   .     S
C120   C121    1.345   .     A
C122   C130    1.354   .     A
C122   C323    1.413   .     A
C123   C124    1.552   .     S
C123   O171    1.223   .     A
C123   O172    1.220   .     A
C124   C125    1.365   .     A
C124   C129    1.399   .     A
C125   C126    1.376   .     A
C126   C127    1.392   .     A
C127   C128    1.372   .     A
C127   C130    1.505   .     S
C128   C129    1.345   .     A
C130   C324    1.413   .     A
C131   C132    1.552   .     S
C131   O173    1.223   .     A
C131   O174    1.220   .     A
C132   C133    1.365   .     A
C132   C137    1.399   .     A
C133   C134    1.376   .     A
C134   C135    1.392   .     A
C135   C136    1.372   .     A
C135   C138    1.505   .     S
C136   C137    1.345   .     A
C138   C146    1.354   .     A
C138   C148    1.413   .     A
C139   C140    1.552   .     S
C139   O175    1.223   .     A
C139   O176    1.220   .     A
C140   C141    1.365   .     A
C140   C145    1.399   .     A
C141   C142    1.376   .     A
C142   C143    1.392   .     A
C143   C144    1.372   .     A
C143   C146    1.505   .     S
C144   C145    1.345   .     A
C146   C147    1.413   .     A
C147   Br165   1.900   .     S
C147   C298    1.413   1_545 S
C148   Br166   1.900   .     S
C148   C306    1.413   1_545 S
C149   C150    1.424   .     A
C149   N79     1.424   1_655 S
C150   C63     1.382   1_655 S
C151   C152    1.397   .     A
C151   C154    1.401   .     S
C152   C153    1.411   .     A
C152   C155    1.396   .     S
C153   N167    1.366   .     A
C154   H462    1.140   .     S
C154   C426    1.665   .     D
C155   C156    1.209   .     T
C156   H707    1.140   .     S
C157   C158    1.424   .     A
C159   C160    1.397   .     A
C159   C162    1.401   .     S
C159   C70     1.382   1_655 S
C160   C161    1.411   .     A
C160   C163    1.396   .     S
C161   N168    1.366   .     A
C162   H466    1.140   1_554 S
C162   C418    1.665   1_654 S
C163   C164    1.209   .     T
C164   H708    1.140   .     S
N168   C69     1.424   1_655 S
O172   Zn1     2.046   1_655 S
O174   Zn1     2.046   1_655 S
Zn177  N255    1.902   .     S
Zn177  O257    2.031   .     S
Zn177  O263    2.031   .     S
Zn177  O348    2.046   1_455 S
Zn177  O350    2.046   1_455 S
Zn178  N256    1.902   .     S
Zn178  O346    2.046   .     S
Zn178  O259    2.031   .     S
Zn178  O261    2.031   .     S
Zn178  O352    2.046   .     S
H179   C205    1.140   .     S
H180   C206    1.140   .     S
H181   C208    1.140   .     S
H182   C209    1.140   .     S
H183   C213    1.140   .     S
H184   C214    1.140   .     S
H185   C216    1.140   .     S
H186   C217    1.140   .     S
H187   C221    1.140   .     S
H188   C222    1.140   .     S
H189   C224    1.140   .     S
H190   C225    1.140   .     S
H191   C229    1.140   .     S
H192   C230    1.140   .     S
H193   C232    1.140   .     S
H194   C233    1.140   .     S
H195   C237    1.140   .     S
H196   C238    1.140   .     S
H197   C241    1.140   .     S
H198   C594    1.140   1_554 S
H199   C245    1.140   .     S
H200   C246    1.140   .     S
H201   C249    1.140   .     S
H202   C602    1.140   .     S
C203   C204    1.552   .     S
C203   O257    1.223   .     A
C203   O258    1.220   .     A
C204   C205    1.365   .     A
C204   C209    1.399   .     A
C205   C206    1.376   .     A
C206   C207    1.392   .     A
C207   C208    1.372   .     A
C207   C210    1.505   .     S
C208   C209    1.345   .     A
C210   C218    1.354   .     A
C210   C59     1.413   1_565 S
C211   C212    1.552   .     S
C211   O259    1.223   .     A
C211   O260    1.220   .     A
C212   C213    1.365   .     A
C212   C217    1.399   .     A
C213   C214    1.376   .     A
C214   C215    1.392   .     A
C215   C216    1.372   .     A
C215   C218    1.505   .     S
C216   C217    1.345   .     A
C218   C60     1.413   1_565 S
C219   C220    1.552   .     S
C219   O261    1.223   .     A
C219   O262    1.220   .     A
C220   C221    1.365   .     A
C220   C225    1.399   .     A
C221   C222    1.376   .     A
C222   C223    1.392   .     A
C223   C224    1.372   .     A
C223   C226    1.505   .     S
C224   C225    1.345   .     A
C226   C234    1.354   .     A
C226   C236    1.413   .     A
C227   C228    1.552   .     S
C227   O263    1.223   .     A
C227   O264    1.220   .     A
C228   C229    1.365   .     A
C228   C233    1.399   .     A
C229   C230    1.376   .     A
C230   C231    1.392   .     A
C231   C232    1.372   .     A
C231   C234    1.505   .     S
C232   C233    1.345   .     A
C234   C235    1.413   .     A
C235   Br253   1.900   .     S
C236   Br254   1.900   .     S
C237   C238    1.424   .     A
C237   N343    1.424   .     A
C238   C327    1.382   .     A
C239   C240    1.397   .     A
C239   C242    1.401   .     S
C239   C326    1.382   1_455 A
C240   C241    1.411   .     A
C240   C243    1.396   .     S
C241   N255    1.366   .     A
C242   H550    1.140   .     S
C242   C690    1.665   1_455 A
C243   C244    1.209   .     T
C244   H709    1.140   .     S
C245   C246    1.424   .     A
C245   N344    1.424   1_455 A
C246   C335    1.382   1_455 A
C247   C334    1.382   .     A
C247   C248    1.397   .     A
C247   C250    1.401   .     S
C248   C249    1.411   .     A
C248   C251    1.396   .     S
C249   N256    1.366   .     A
C250   H554    1.140   1_554 A
C250   C682    1.665   1_554 A
C251   C252    1.209   .     T
C252   H710    1.140   .     S
N255   C325    1.424   1_455 A
N256   C333    1.424   .     A
O258   Zn266   2.046   1_455 S
O260   Zn265   2.046   .     S
O262   Zn265   2.046   .     S
O264   Zn266   2.046   1_455 A
Zn265  N343    1.902   .     S
Zn265  O345    2.031   .     S
Zn265  O351    2.031   .     S
Zn266  N344    1.902   .     S
Zn266  O347    2.031   .     S
Zn266  O349    2.031   .     S
Zn266  O258    2.046   1_655 S
Zn266  O264    2.046   1_655 A
H267   C293    1.140   .     S
H268   C294    1.140   .     S
H269   C296    1.140   .     S
H270   C297    1.140   .     S
H271   C301    1.140   .     S
H272   C302    1.140   .     S
H273   C304    1.140   .     S
H274   C305    1.140   .     S
H275   C309    1.140   .     S
H276   C310    1.140   .     S
H277   C312    1.140   .     S
H278   C313    1.140   .     S
H279   C317    1.140   .     S
H280   C318    1.140   .     S
H281   C320    1.140   .     S
H282   C321    1.140   .     S
H283   C325    1.140   .     S
H284   C326    1.140   .     S
H285   C329    1.140   .     S
H286   C682    1.140   1_554 S
H287   C333    1.140   .     S
H288   C334    1.140   .     S
H289   C337    1.140   .     S
H290   C690    1.140   .     S
C291   C292    1.552   .     S
C291   O345    1.223   .     A
C291   O346    1.220   .     A
C292   C293    1.365   .     A
C292   C297    1.399   .     A
C293   C294    1.376   .     A
C294   C295    1.392   .     A
C295   C296    1.372   .     A
C295   C298    1.505   .     S
C296   C297    1.345   .     A
C298   C306    1.354   .     A
C298   C147    1.413   1_565 S
C299   C300    1.552   .     S
C299   O347    1.223   .     A
C299   O348    1.220   .     A
C300   C301    1.365   .     A
C300   C305    1.399   .     A
C301   C302    1.376   .     A
C302   C303    1.392   .     A
C303   C304    1.372   .     A
C303   C306    1.505   .     S
C304   C305    1.345   .     A
C306   C148    1.413   1_565 S
C307   C308    1.552   .     S
C307   O349    1.223   .     A
C307   O350    1.220   .     A
C308   C309    1.365   .     A
C308   C313    1.399   .     A
C309   C310    1.376   .     A
C310   C311    1.392   .     A
C311   C312    1.372   .     A
C311   C314    1.505   .     S
C312   C313    1.345   .     A
C314   C322    1.354   .     A
C314   C324    1.413   .     A
C315   C316    1.552   .     S
C315   O351    1.223   .     A
C315   O352    1.220   .     A
C316   C317    1.365   .     A
C316   C321    1.399   .     A
C317   C318    1.376   .     A
C318   C319    1.392   .     A
C319   C320    1.372   .     A
C319   C322    1.505   .     S
C320   C321    1.345   .     A
C322   C323    1.413   .     A
C323   Br341   1.900   .     S
C324   Br342   1.900   .     S
C325   C326    1.424   .     A
C325   N255    1.424   1_655 A
C326   C239    1.382   1_655 A
C327   C328    1.397   .     A
C327   C330    1.401   .     S
C328   C329    1.411   .     A
C328   C331    1.396   .     S
C329   N343    1.366   .     A
C330   H638    1.140   .     S
C330   C602    1.665   .     D
C331   C332    1.209   .     T
C332   H711    1.140   .     S
C333   C334    1.424   .     A
C335   C336    1.397   .     A
C335   C338    1.401   .     S
C335   C246    1.382   1_655 A
C336   C337    1.411   .     A
C336   C339    1.396   .     S
C337   N344    1.366   .     A
C338   H642    1.140   1_554 A
C338   C594    1.665   1_654 A
C339   C340    1.209   .     T
C340   H712    1.140   .     S
N344   C245    1.424   1_655 A
O348   Zn177   2.046   1_655 S
O350   Zn177   2.046   1_655 S
Zn353  N431    1.902   .     S
Zn353  O433    2.031   .     S
Zn353  O439    2.031   .     S
Zn353  O524    2.046   1_455 S
Zn353  O526    2.046   1_455 A
Zn354  N432    1.902   .     S
Zn354  O522    2.046   .     S
Zn354  O435    2.031   .     S
Zn354  O437    2.031   .     S
Zn354  O528    2.046   .     S
H355   C381    1.140   .     S
H356   C382    1.140   .     S
H357   C384    1.140   .     S
H358   C385    1.140   .     S
H359   C389    1.140   .     S
H360   C390    1.140   .     S
H361   C392    1.140   .     S
H362   C393    1.140   .     S
H363   C397    1.140   .     S
H364   C398    1.140   .     S
H365   C400    1.140   .     S
H366   C401    1.140   .     S
H367   C405    1.140   .     S
H368   C406    1.140   .     S
H369   C408    1.140   .     S
H370   C409    1.140   .     S
H371   C413    1.140   .     S
H372   C414    1.140   .     S
H373   C417    1.140   .     S
H375   C421    1.140   .     S
H376   C422    1.140   .     S
H377   C425    1.140   .     S
H378   C74     1.140   1_556 S
C379   C380    1.552   .     S
C379   O433    1.223   .     A
C379   O434    1.220   .     A
C380   C381    1.365   .     A
C380   C385    1.399   .     A
C381   C382    1.376   .     A
C382   C383    1.392   .     A
C383   C384    1.372   .     A
C383   C386    1.505   .     S
C384   C385    1.345   .     A
C386   C394    1.354   .     A
C386   C587    1.413   .     A
C387   C388    1.552   .     S
C387   O435    1.223   .     A
C387   O436    1.220   .     A
C388   C389    1.365   .     A
C388   C393    1.399   .     A
C389   C390    1.376   .     A
C390   C391    1.392   .     A
C391   C392    1.372   .     A
C391   C394    1.505   .     S
C392   C393    1.345   .     A
C394   C588    1.413   .     A
C395   C396    1.552   .     S
C395   O437    1.223   .     A
C395   O438    1.220   .     A
C396   C397    1.365   .     A
C396   C401    1.399   .     A
C397   C398    1.376   .     A
C398   C399    1.392   .     A
C399   C400    1.372   .     A
C399   C402    1.505   .     S
C400   C401    1.345   .     A
C402   C410    1.354   .     A
C402   C412    1.413   .     A
C403   C404    1.552   .     S
C403   O439    1.223   .     A
C403   O440    1.220   .     A
C404   C405    1.365   .     A
C404   C409    1.399   .     A
C405   C406    1.376   .     A
C406   C407    1.392   .     A
C407   C408    1.372   .     A
C407   C410    1.505   .     S
C408   C409    1.345   .     A
C410   C411    1.413   .     A
C411   Br429   1.900   .     S
C411   C562    1.413   1_545 A
C412   Br430   1.900   .     S
C412   C570    1.413   1_545 A
C413   C414    1.424   .     A
C413   N519    1.424   .     A
C414   C503    1.382   .     A
C415   C416    1.397   .     A
C415   C418    1.401   .     S
C415   C502    1.382   1_455 A
C416   C417    1.411   .     A
C416   C419    1.396   .     S
C417   N431    1.366   .     A
C418   H22     1.140   1_556 S
C418   C162    1.665   1_456 S
C419   C420    1.209   .     T
C420   H713    1.140   .     S
C421   C422    1.424   .     A
C421   N520    1.424   1_455 S
C422   C511    1.382   1_455 A
C423   C510    1.382   .     A
C423   C424    1.397   .     A
C423   C426    1.401   .     S
C424   C425    1.411   .     A
C424   C427    1.396   .     S
C425   N432    1.366   .     A
C427   C428    1.209   .     T
C428   H714    1.140   .     S
N431   C501    1.424   1_455 A
N432   C509    1.424   .     A
O434   Zn442   2.046   1_455 A
O436   Zn441   2.046   .     S
O438   Zn441   2.046   .     S
O440   Zn442   2.046   1_455 S
Zn441  N519    1.902   .     S
Zn441  O521    2.031   .     S
Zn441  O527    2.031   .     S
Zn442  N520    1.902   .     S
Zn442  O523    2.031   .     S
Zn442  O525    2.031   .     S
Zn442  O434    2.046   1_655 A
Zn442  O440    2.046   1_655 S
H443   C469    1.140   .     S
H444   C470    1.140   .     S
H445   C472    1.140   .     S
H446   C473    1.140   .     S
H447   C477    1.140   .     S
H448   C478    1.140   .     S
H449   C480    1.140   .     S
H450   C481    1.140   .     S
H451   C485    1.140   .     S
H452   C486    1.140   .     S
H453   C488    1.140   .     S
H454   C489    1.140   .     S
H455   C493    1.140   .     S
H456   C494    1.140   .     S
H457   C496    1.140   .     S
H458   C497    1.140   .     S
H459   C501    1.140   .     S
H460   C502    1.140   .     S
H461   C505    1.140   .     S
H463   C509    1.140   .     S
H464   C510    1.140   .     S
H465   C513    1.140   .     S
H466   C162    1.140   1_556 S
C467   C468    1.552   .     S
C467   O521    1.223   .     A
C467   O522    1.220   .     A
C468   C469    1.365   .     A
C468   C473    1.399   .     A
C469   C470    1.376   .     A
C470   C471    1.392   .     A
C471   C472    1.372   .     A
C471   C474    1.505   .     S
C472   C473    1.345   .     A
C474   C482    1.354   .     A
C474   C675    1.413   .     A
C475   C476    1.552   .     S
C475   O523    1.223   .     A
C475   O524    1.220   .     A
C476   C477    1.365   .     A
C476   C481    1.399   .     A
C477   C478    1.376   .     A
C478   C479    1.392   .     A
C479   C480    1.372   .     A
C479   C482    1.505   .     S
C480   C481    1.345   .     A
C482   C676    1.413   .     A
C483   C484    1.552   .     S
C483   O525    1.223   .     A
C483   O526    1.220   .     A
C484   C485    1.365   .     A
C484   C489    1.399   .     A
C485   C486    1.376   .     A
C486   C487    1.392   .     A
C487   C488    1.372   .     A
C487   C490    1.505   .     S
C488   C489    1.345   .     A
C490   C498    1.354   .     A
C490   C500    1.413   .     A
C491   C492    1.552   .     S
C491   O527    1.223   .     A
C491   O528    1.220   .     A
C492   C493    1.365   .     A
C492   C497    1.399   .     A
C493   C494    1.376   .     A
C494   C495    1.392   .     A
C495   C496    1.372   .     A
C495   C498    1.505   .     S
C496   C497    1.345   .     A
C498   C499    1.413   .     A
C499   Br517   1.900   .     S
C499   C650    1.413   1_545 A
C500   Br518   1.900   .     S
C500   C658    1.413   1_545 A
C501   C502    1.424   .     A
C501   N431    1.424   1_655 A
C502   C415    1.382   1_655 A
C503   C504    1.397   .     A
C503   C506    1.401   .     S
C504   C505    1.411   .     A
C504   C507    1.396   .     S
C505   N519    1.366   .     A
C506   C74     1.665   1_556 S
C506   H110    1.140   1_556 S
C507   C508    1.209   .     T
C508   H715    1.140   .     S
C509   C510    1.424   .     A
C511   C512    1.397   .     A
C511   C514    1.401   .     S
C511   C422    1.382   1_655 A
C512   C513    1.411   .     A
C512   C515    1.396   .     S
C513   N520    1.366   .     A
C514   C66     1.665   1_655 S
C515   C516    1.209   .     T
C516   H716    1.140   .     S
N520   C421    1.424   1_655 S
O524   Zn353   2.046   1_655 S
O526   Zn353   2.046   1_655 A
Zn529  N607    1.902   .     S
Zn529  O609    2.031   .     S
Zn529  O615    2.031   .     S
Zn529  O700    2.046   1_455 A
Zn529  O702    2.046   1_455 A
Zn530  N608    1.902   .     S
Zn530  O698    2.046   .     S
Zn530  O611    2.031   .     S
Zn530  O613    2.031   .     S
Zn530  O704    2.046   .     S
H531   C557    1.140   .     S
H532   C558    1.140   .     S
H533   C560    1.140   .     S
H534   C561    1.140   .     S
H535   C565    1.140   .     S
H536   C566    1.140   .     S
H537   C568    1.140   .     S
H538   C569    1.140   .     S
H539   C573    1.140   .     S
H540   C574    1.140   .     S
H541   C576    1.140   .     S
H542   C577    1.140   .     S
H543   C581    1.140   .     S
H544   C582    1.140   .     S
H545   C584    1.140   .     S
H546   C585    1.140   .     S
H547   C589    1.140   .     S
H548   C590    1.140   .     S
H549   C593    1.140   .     S
H551   C597    1.140   .     S
H552   C598    1.140   .     S
H553   C601    1.140   .     S
H554   C250    1.140   1_556 A
C555   C556    1.552   .     S
C555   O609    1.223   .     A
C555   O610    1.220   .     A
C556   C557    1.365   .     A
C556   C561    1.399   .     A
C557   C558    1.376   .     A
C558   C559    1.392   .     A
C559   C560    1.372   .     A
C559   C562    1.505   .     S
C560   C561    1.345   .     A
C562   C570    1.354   .     A
C562   C411    1.413   1_565 A
C563   C564    1.552   .     S
C563   O611    1.223   .     A
C563   O612    1.220   .     A
C564   C565    1.365   .     A
C564   C569    1.399   .     A
C565   C566    1.376   .     A
C566   C567    1.392   .     A
C567   C568    1.372   .     A
C567   C570    1.505   .     S
C568   C569    1.345   .     A
C570   C412    1.413   1_565 A
C571   C572    1.552   .     S
C571   O613    1.223   .     A
C571   O614    1.220   .     A
C572   C573    1.365   .     A
C572   C577    1.399   .     A
C573   C574    1.376   .     A
C574   C575    1.392   .     A
C575   C576    1.372   .     A
C575   C578    1.505   .     S
C576   C577    1.345   .     A
C578   C586    1.354   .     A
C578   C588    1.413   .     A
C579   C580    1.552   .     S
C579   O615    1.223   .     A
C579   O616    1.220   .     A
C580   C581    1.365   .     A
C580   C585    1.399   .     A
C581   C582    1.376   .     A
C582   C583    1.392   .     A
C583   C584    1.372   .     A
C583   C586    1.505   .     S
C584   C585    1.345   .     A
C586   C587    1.413   .     A
C587   Br605   1.900   .     S
C588   Br606   1.900   .     S
C589   C590    1.424   .     A
C589   N695    1.424   .     A
C590   C679    1.382   .     A
C591   C592    1.397   .     A
C591   C594    1.401   .     S
C591   C678    1.382   1_455 A
C592   C593    1.411   .     A
C592   C595    1.396   .     S
C593   N607    1.366   .     A
C594   H198    1.140   1_556 S
C594   C338    1.665   1_456 A
C595   C596    1.209   .     T
C596   H717    1.140   .     S
C597   C598    1.424   .     A
C597   N696    1.424   1_455 S
C598   C687    1.382   1_455 A
C599   C686    1.382   .     A
C599   C600    1.397   .     A
C599   C602    1.401   .     S
C600   C601    1.411   .     A
C600   C603    1.396   .     S
C601   N608    1.366   .     A
C603   C604    1.209   .     T
C604   H718    1.140   .     S
N607   C677    1.424   1_455 A
N608   C685    1.424   .     A
O610   Zn618   2.046   1_455 A
O612   Zn617   2.046   .     S
O614   Zn617   2.046   .     S
O616   Zn618   2.046   1_455 S
Zn617  N695    1.902   .     S
Zn617  O697    2.031   .     S
Zn617  O703    2.031   .     S
Zn618  N696    1.902   .     S
Zn618  O699    2.031   .     S
Zn618  O701    2.031   .     S
Zn618  O610    2.046   1_655 A
Zn618  O616    2.046   1_655 S
H619   C645    1.140   .     S
H620   C646    1.140   .     S
H621   C648    1.140   .     S
H622   C649    1.140   .     S
H623   C653    1.140   .     S
H624   C654    1.140   .     S
H625   C656    1.140   .     S
H626   C657    1.140   .     S
H627   C661    1.140   .     S
H628   C662    1.140   .     S
H629   C664    1.140   .     S
H630   C665    1.140   .     S
H631   C669    1.140   .     S
H632   C670    1.140   .     S
H633   C672    1.140   .     S
H634   C673    1.140   .     S
H635   C677    1.140   .     S
H636   C678    1.140   .     S
H637   C681    1.140   .     S
H639   C685    1.140   .     S
H640   C686    1.140   .     S
H641   C689    1.140   .     S
H642   C338    1.140   1_556 A
C643   C644    1.552   .     S
C643   O697    1.223   .     A
C643   O698    1.220   .     A
C644   C645    1.365   .     A
C644   C649    1.399   .     A
C645   C646    1.376   .     A
C646   C647    1.392   .     A
C647   C648    1.372   .     A
C647   C650    1.505   .     S
C648   C649    1.345   .     A
C650   C658    1.354   .     A
C650   C499    1.413   1_565 A
C651   C652    1.552   .     S
C651   O699    1.223   .     A
C651   O700    1.220   .     A
C652   C653    1.365   .     A
C652   C657    1.399   .     A
C653   C654    1.376   .     A
C654   C655    1.392   .     A
C655   C656    1.372   .     A
C655   C658    1.505   .     S
C656   C657    1.345   .     A
C658   C500    1.413   1_565 A
C659   C660    1.552   .     S
C659   O701    1.223   .     A
C659   O702    1.220   .     A
C660   C661    1.365   .     A
C660   C665    1.399   .     A
C661   C662    1.376   .     A
C662   C663    1.392   .     A
C663   C664    1.372   .     A
C663   C666    1.505   .     S
C664   C665    1.345   .     A
C666   C674    1.354   .     A
C666   C676    1.413   .     A
C667   C668    1.552   .     S
C667   O703    1.223   .     A
C667   O704    1.220   .     A
C668   C669    1.365   .     A
C668   C673    1.399   .     A
C669   C670    1.376   .     A
C670   C671    1.392   .     A
C671   C672    1.372   .     A
C671   C674    1.505   .     S
C672   C673    1.345   .     A
C674   C675    1.413   .     A
C675   Br693   1.900   .     S
C676   Br694   1.900   .     S
C677   C678    1.424   .     A
C677   N607    1.424   1_655 A
C678   C591    1.382   1_655 A
C679   C680    1.397   .     A
C679   C682    1.401   .     S
C680   C681    1.411   .     A
C680   C683    1.396   .     S
C681   N695    1.366   .     A
C682   C250    1.665   1_556 A
C682   H286    1.140   1_556 S
C683   C684    1.209   .     T
C684   H719    1.140   .     S
C685   C686    1.424   .     A
C687   C688    1.397   .     A
C687   C690    1.401   .     S
C687   C598    1.382   1_655 A
C688   C689    1.411   .     A
C688   C691    1.396   .     S
C689   N696    1.366   .     A
C690   C242    1.665   1_655 A
C691   C692    1.209   .     T
C692   H720    1.140   .     S
N696   C597    1.424   1_655 S
O700   Zn529   2.046   1_655 A
O702   Zn529   2.046   1_655 A
