data_IYUQEZ_clean
_audit_creation_date              2014-07-02
_audit_creation_method            'Materials Studio'
_symmetry_space_group_name_H-M    'P1'
_symmetry_Int_Tables_number       1
_symmetry_cell_setting            triclinic
loop_
_symmetry_equiv_pos_as_xyz
  x,y,z
_cell_length_a                    31.2510
_cell_length_b                    31.2510
_cell_length_c                    31.2510
_cell_angle_alpha                 90.0000
_cell_angle_beta                  90.0000
_cell_angle_gamma                 90.0000
loop_
_atom_site_label
_atom_site_type_symbol
_atom_site_fract_x
_atom_site_fract_y
_atom_site_fract_z
_atom_site_U_iso_or_equiv
_atom_site_adp_type
_atom_site_occupancy
Na1    Na    0.81438   0.18562   0.81438   0.01267  Uiso   1.00
Na2    Na    0.18562   0.81438   0.81438   0.01267  Uiso   1.00
Na3    Na    0.18562   0.18562   0.18562   0.01267  Uiso   1.00
Na4    Na    0.81438   0.81438   0.18562   0.01267  Uiso   1.00
Na5    Na    0.68562   0.31438   0.68562   0.01267  Uiso   1.00
Na6    Na    0.31438   0.68562   0.68562   0.01267  Uiso   1.00
Na7    Na    0.68562   0.68562   0.31438   0.01267  Uiso   1.00
Na8    Na    0.31438   0.31438   0.31438   0.01267  Uiso   1.00
Na9    Na    0.18562   0.81438   0.18562   0.01267  Uiso   1.00
Na10   Na    0.81438   0.18562   0.18562   0.01267  Uiso   1.00
Na11   Na    0.81438   0.81438   0.81438   0.01267  Uiso   1.00
Na12   Na    0.18562   0.18562   0.81438   0.01267  Uiso   1.00
Na13   Na    0.31438   0.68562   0.31438   0.01267  Uiso   1.00
Na14   Na    0.68562   0.31438   0.31438   0.01267  Uiso   1.00
Na15   Na    0.31438   0.31438   0.68562   0.01267  Uiso   1.00
Na16   Na    0.68562   0.68562   0.68562   0.01267  Uiso   1.00
Na17   Na    0.69538   0.12034   1.00000   0.01267  Uiso   1.00
Na18   Na    0.30462   0.87966   0.00000   0.01267  Uiso   1.00
Na19   Na    0.30462   0.12034   0.00000   0.01267  Uiso   1.00
Na20   Na    0.69538   0.87966   0.00000   0.01267  Uiso   1.00
Na21   Na    0.00000   0.69538   0.12034   0.01267  Uiso   1.00
Na22   Na    0.00000   0.30462   0.87966   0.01267  Uiso   1.00
Na23   Na    0.00000   0.30462   0.12034   0.01267  Uiso   1.00
Na24   Na    0.00000   0.69538   0.87966   0.01267  Uiso   1.00
Na25   Na    0.12034   0.00000   0.69538   0.01267  Uiso   1.00
Na26   Na    0.87966   0.00000   0.30462   0.01267  Uiso   1.00
Na27   Na    0.12034   0.00000   0.30462   0.01267  Uiso   1.00
Na28   Na    0.87966   0.00000   0.69538   0.01267  Uiso   1.00
Na29   Na    0.62034   0.19538   0.50000   0.01267  Uiso   1.00
Na30   Na    0.37966   0.80462   0.50000   0.01267  Uiso   1.00
Na31   Na    0.62034   0.80462   0.50000   0.01267  Uiso   1.00
Na32   Na    0.37966   0.19538   0.50000   0.01267  Uiso   1.00
Na33   Na    0.19538   0.50000   0.37966   0.01267  Uiso   1.00
Na34   Na    0.80462   0.50000   0.62034   0.01267  Uiso   1.00
Na35   Na    0.80462   0.50000   0.37966   0.01267  Uiso   1.00
Na36   Na    0.19538   0.50000   0.62034   0.01267  Uiso   1.00
Na37   Na    0.50000   0.62034   0.80462   0.01267  Uiso   1.00
Na38   Na    0.50000   0.37966   0.19538   0.01267  Uiso   1.00
Na39   Na    0.50000   0.62034   0.19538   0.01267  Uiso   1.00
Na40   Na    0.50000   0.37966   0.80462   0.01267  Uiso   1.00
Na41   Na    0.50000   0.23080   1.00000   0.01267  Uiso   1.00
Na42   Na    0.50000   0.76920   0.00000   0.01267  Uiso   1.00
Na43   Na    0.00000   0.50000   0.23080   0.01267  Uiso   1.00
Na44   Na    0.00000   0.50000   0.76920   0.01267  Uiso   1.00
Na45   Na    0.23080   0.00000   0.50000   0.01267  Uiso   1.00
Na46   Na    0.76920   0.00000   0.50000   0.01267  Uiso   1.00
Na47   Na    0.73080   0.00000   0.50000   0.01267  Uiso   1.00
Na48   Na    0.26920   0.00000   0.50000   0.01267  Uiso   1.00
Na49   Na    0.00000   0.50000   0.26920   0.01267  Uiso   1.00
Na50   Na    0.00000   0.50000   0.73080   0.01267  Uiso   1.00
Na51   Na    0.50000   0.73080   0.00000   0.01267  Uiso   1.00
Na52   Na    0.50000   0.26920   0.00000   0.01267  Uiso   1.00
C1     C     0.92068   0.15566   0.79110   0.01267  Uiso   1.00
C2     C     0.95094   0.07857   0.73819   0.01267  Uiso   1.00
C3     C     0.70911   0.21629   0.84040   0.01267  Uiso   1.00
C4     C     0.65820   0.19360   0.92134   0.01267  Uiso   1.00
C5     C     0.96368   0.14420   0.78254   0.01267  Uiso   1.00
C6     C     0.97765   0.10901   0.75874   0.01267  Uiso   1.00
C7     C     0.66925   0.23419   0.85283   0.01267  Uiso   1.00
C8     C     0.64665   0.22448   0.88984   0.01267  Uiso   1.00
C9     C     0.07932   0.84434   0.79110   0.01267  Uiso   1.00
C10    C     0.04906   0.92143   0.73819   0.01267  Uiso   1.00
C11    C     0.29089   0.78371   0.84040   0.01267  Uiso   1.00
C12    C     0.34180   0.80640   0.92134   0.01267  Uiso   1.00
C13    C     0.03632   0.85580   0.78254   0.01267  Uiso   1.00
C14    C     0.02235   0.89099   0.75874   0.01267  Uiso   1.00
C15    C     0.33075   0.76581   0.85283   0.01267  Uiso   1.00
C16    C     0.35335   0.77552   0.88984   0.01267  Uiso   1.00
C17    C     0.07932   0.15566   0.20890   0.01267  Uiso   1.00
C18    C     0.04906   0.07857   0.26181   0.01267  Uiso   1.00
C19    C     0.29089   0.21629   0.15960   0.01267  Uiso   1.00
C20    C     0.34180   0.19360   0.07866   0.01267  Uiso   1.00
C21    C     0.03632   0.14420   0.21746   0.01267  Uiso   1.00
C22    C     0.02235   0.10901   0.24126   0.01267  Uiso   1.00
C23    C     0.33075   0.23419   0.14717   0.01267  Uiso   1.00
C24    C     0.35335   0.22448   0.11016   0.01267  Uiso   1.00
C25    C     0.92068   0.84434   0.20890   0.01267  Uiso   1.00
C26    C     0.95094   0.92143   0.26181   0.01267  Uiso   1.00
C27    C     0.70911   0.78371   0.15960   0.01267  Uiso   1.00
C28    C     0.65820   0.80640   0.07866   0.01267  Uiso   1.00
C29    C     0.96368   0.85580   0.21746   0.01267  Uiso   1.00
C30    C     0.97765   0.89099   0.24126   0.01267  Uiso   1.00
C31    C     0.66925   0.76581   0.14717   0.01267  Uiso   1.00
C32    C     0.64665   0.77552   0.11016   0.01267  Uiso   1.00
C33    C     0.79110   0.92068   0.15566   0.01267  Uiso   1.00
C34    C     0.73819   0.95094   0.07857   0.01267  Uiso   1.00
C35    C     0.84040   0.70911   0.21629   0.01267  Uiso   1.00
C36    C     0.92134   0.65820   0.19360   0.01267  Uiso   1.00
C37    C     0.78254   0.96368   0.14420   0.01267  Uiso   1.00
C38    C     0.75874   0.97765   0.10901   0.01267  Uiso   1.00
C39    C     0.85283   0.66925   0.23419   0.01267  Uiso   1.00
C40    C     0.88984   0.64665   0.22448   0.01267  Uiso   1.00
C41    C     0.79110   0.07932   0.84434   0.01267  Uiso   1.00
C42    C     0.73819   0.04906   0.92143   0.01267  Uiso   1.00
C43    C     0.84040   0.29089   0.78371   0.01267  Uiso   1.00
C44    C     0.92134   0.34180   0.80640   0.01267  Uiso   1.00
C45    C     0.78254   0.03632   0.85580   0.01267  Uiso   1.00
C46    C     0.75874   0.02235   0.89099   0.01267  Uiso   1.00
C47    C     0.85283   0.33075   0.76581   0.01267  Uiso   1.00
C48    C     0.88984   0.35335   0.77552   0.01267  Uiso   1.00
C49    C     0.20890   0.07932   0.15566   0.01267  Uiso   1.00
C50    C     0.26181   0.04906   0.07857   0.01267  Uiso   1.00
C51    C     0.15960   0.29089   0.21629   0.01267  Uiso   1.00
C52    C     0.07866   0.34180   0.19360   0.01267  Uiso   1.00
C53    C     0.21746   0.03632   0.14420   0.01267  Uiso   1.00
C54    C     0.24126   0.02235   0.10901   0.01267  Uiso   1.00
C55    C     0.14717   0.33075   0.23419   0.01267  Uiso   1.00
C56    C     0.11016   0.35335   0.22448   0.01267  Uiso   1.00
C57    C     0.20890   0.92068   0.84434   0.01267  Uiso   1.00
C58    C     0.26181   0.95094   0.92143   0.01267  Uiso   1.00
C59    C     0.15960   0.70911   0.78371   0.01267  Uiso   1.00
C60    C     0.07866   0.65820   0.80640   0.01267  Uiso   1.00
C61    C     0.21746   0.96368   0.85580   0.01267  Uiso   1.00
C62    C     0.24126   0.97765   0.89099   0.01267  Uiso   1.00
C63    C     0.14717   0.66925   0.76581   0.01267  Uiso   1.00
C64    C     0.11016   0.64665   0.77552   0.01267  Uiso   1.00
C65    C     0.15566   0.79110   0.92068   0.01267  Uiso   1.00
C66    C     0.07857   0.73819   0.95094   0.01267  Uiso   1.00
C67    C     0.21629   0.84040   0.70911   0.01267  Uiso   1.00
C68    C     0.19360   0.92134   0.65820   0.01267  Uiso   1.00
C69    C     0.14420   0.78254   0.96368   0.01267  Uiso   1.00
C70    C     0.10901   0.75874   0.97765   0.01267  Uiso   1.00
C71    C     0.23419   0.85283   0.66925   0.01267  Uiso   1.00
C72    C     0.22448   0.88984   0.64665   0.01267  Uiso   1.00
C73    C     0.84434   0.79110   0.07932   0.01267  Uiso   1.00
C74    C     0.92143   0.73819   0.04906   0.01267  Uiso   1.00
C75    C     0.78371   0.84040   0.29089   0.01267  Uiso   1.00
C76    C     0.80640   0.92134   0.34180   0.01267  Uiso   1.00
C77    C     0.85580   0.78254   0.03632   0.01267  Uiso   1.00
C78    C     0.89099   0.75874   0.02235   0.01267  Uiso   1.00
C79    C     0.76581   0.85283   0.33075   0.01267  Uiso   1.00
C80    C     0.77552   0.88984   0.35335   0.01267  Uiso   1.00
C81    C     0.15566   0.20890   0.07932   0.01267  Uiso   1.00
C82    C     0.07857   0.26181   0.04906   0.01267  Uiso   1.00
C83    C     0.21629   0.15960   0.29089   0.01267  Uiso   1.00
C84    C     0.19360   0.07866   0.34180   0.01267  Uiso   1.00
C85    C     0.14420   0.21746   0.03632   0.01267  Uiso   1.00
C86    C     0.10901   0.24126   0.02235   0.01267  Uiso   1.00
C87    C     0.23419   0.14717   0.33075   0.01267  Uiso   1.00
C88    C     0.22448   0.11016   0.35335   0.01267  Uiso   1.00
C89    C     0.84434   0.20890   0.92068   0.01267  Uiso   1.00
C90    C     0.92143   0.26181   0.95094   0.01267  Uiso   1.00
C91    C     0.78371   0.15960   0.70911   0.01267  Uiso   1.00
C92    C     0.80640   0.07866   0.65820   0.01267  Uiso   1.00
C93    C     0.85580   0.21746   0.96368   0.01267  Uiso   1.00
C94    C     0.89099   0.24126   0.97765   0.01267  Uiso   1.00
C95    C     0.76581   0.14717   0.66925   0.01267  Uiso   1.00
C96    C     0.77552   0.11016   0.64665   0.01267  Uiso   1.00
C97    C     0.65566   0.42068   0.70890   0.01267  Uiso   1.00
C98    C     0.57857   0.45094   0.76181   0.01267  Uiso   1.00
C99    C     0.71629   0.20911   0.65960   0.01267  Uiso   1.00
C100   C     0.69360   0.15820   0.57866   0.01267  Uiso   1.00
C101   C     0.64420   0.46368   0.71746   0.01267  Uiso   1.00
C102   C     0.60901   0.47765   0.74126   0.01267  Uiso   1.00
C103   C     0.73419   0.16925   0.64717   0.01267  Uiso   1.00
C104   C     0.72448   0.14665   0.61016   0.01267  Uiso   1.00
C105   C     0.34434   0.57932   0.70890   0.01267  Uiso   1.00
C106   C     0.42143   0.54906   0.76181   0.01267  Uiso   1.00
C107   C     0.28371   0.79089   0.65960   0.01267  Uiso   1.00
C108   C     0.30640   0.84180   0.57866   0.01267  Uiso   1.00
C109   C     0.35580   0.53632   0.71746   0.01267  Uiso   1.00
C110   C     0.39099   0.52235   0.74126   0.01267  Uiso   1.00
C111   C     0.26581   0.83075   0.64717   0.01267  Uiso   1.00
C112   C     0.27552   0.85335   0.61016   0.01267  Uiso   1.00
C113   C     0.65566   0.57932   0.29110   0.01267  Uiso   1.00
C114   C     0.57857   0.54906   0.23819   0.01267  Uiso   1.00
C115   C     0.71629   0.79089   0.34040   0.01267  Uiso   1.00
C116   C     0.69360   0.84180   0.42134   0.01267  Uiso   1.00
C117   C     0.64420   0.53632   0.28254   0.01267  Uiso   1.00
C118   C     0.60901   0.52235   0.25874   0.01267  Uiso   1.00
C119   C     0.73419   0.83075   0.35283   0.01267  Uiso   1.00
C120   C     0.72448   0.85335   0.38984   0.01267  Uiso   1.00
C121   C     0.34434   0.42068   0.29110   0.01267  Uiso   1.00
C122   C     0.42143   0.45094   0.23819   0.01267  Uiso   1.00
C123   C     0.28371   0.20911   0.34040   0.01267  Uiso   1.00
C124   C     0.30640   0.15820   0.42134   0.01267  Uiso   1.00
C125   C     0.35580   0.46368   0.28254   0.01267  Uiso   1.00
C126   C     0.39099   0.47765   0.25874   0.01267  Uiso   1.00
C127   C     0.26581   0.16925   0.35283   0.01267  Uiso   1.00
C128   C     0.27552   0.14665   0.38984   0.01267  Uiso   1.00
C129   C     0.42068   0.29110   0.34434   0.01267  Uiso   1.00
C130   C     0.45094   0.23819   0.42143   0.01267  Uiso   1.00
C131   C     0.20911   0.34040   0.28371   0.01267  Uiso   1.00
C132   C     0.15820   0.42134   0.30640   0.01267  Uiso   1.00
C133   C     0.46368   0.28254   0.35580   0.01267  Uiso   1.00
C134   C     0.47765   0.25874   0.39099   0.01267  Uiso   1.00
C135   C     0.16925   0.35283   0.26581   0.01267  Uiso   1.00
C136   C     0.14665   0.38984   0.27552   0.01267  Uiso   1.00
C137   C     0.57932   0.29110   0.65566   0.01267  Uiso   1.00
C138   C     0.54906   0.23819   0.57857   0.01267  Uiso   1.00
C139   C     0.79089   0.34040   0.71629   0.01267  Uiso   1.00
C140   C     0.84180   0.42134   0.69360   0.01267  Uiso   1.00
C141   C     0.53632   0.28254   0.64420   0.01267  Uiso   1.00
C142   C     0.52235   0.25874   0.60901   0.01267  Uiso   1.00
C143   C     0.83075   0.35283   0.73419   0.01267  Uiso   1.00
C144   C     0.85335   0.38984   0.72448   0.01267  Uiso   1.00
C145   C     0.57932   0.70890   0.34434   0.01267  Uiso   1.00
C146   C     0.54906   0.76181   0.42143   0.01267  Uiso   1.00
C147   C     0.79089   0.65960   0.28371   0.01267  Uiso   1.00
C148   C     0.84180   0.57866   0.30640   0.01267  Uiso   1.00
C149   C     0.53632   0.71746   0.35580   0.01267  Uiso   1.00
C150   C     0.52235   0.74126   0.39099   0.01267  Uiso   1.00
C151   C     0.83075   0.64717   0.26581   0.01267  Uiso   1.00
C152   C     0.85335   0.61016   0.27552   0.01267  Uiso   1.00
C153   C     0.42068   0.70890   0.65566   0.01267  Uiso   1.00
C154   C     0.45094   0.76181   0.57857   0.01267  Uiso   1.00
C155   C     0.20911   0.65960   0.71629   0.01267  Uiso   1.00
C156   C     0.15820   0.57866   0.69360   0.01267  Uiso   1.00
C157   C     0.46368   0.71746   0.64420   0.01267  Uiso   1.00
C158   C     0.47765   0.74126   0.60901   0.01267  Uiso   1.00
C159   C     0.16925   0.64717   0.73419   0.01267  Uiso   1.00
C160   C     0.14665   0.61016   0.72448   0.01267  Uiso   1.00
C161   C     0.29110   0.65566   0.57932   0.01267  Uiso   1.00
C162   C     0.23819   0.57857   0.54906   0.01267  Uiso   1.00
C163   C     0.34040   0.71629   0.79089   0.01267  Uiso   1.00
C164   C     0.42134   0.69360   0.84180   0.01267  Uiso   1.00
C165   C     0.28254   0.64420   0.53632   0.01267  Uiso   1.00
C166   C     0.25874   0.60901   0.52235   0.01267  Uiso   1.00
C167   C     0.35283   0.73419   0.83075   0.01267  Uiso   1.00
C168   C     0.38984   0.72448   0.85335   0.01267  Uiso   1.00
C169   C     0.29110   0.34434   0.42068   0.01267  Uiso   1.00
C170   C     0.23819   0.42143   0.45094   0.01267  Uiso   1.00
C171   C     0.34040   0.28371   0.20911   0.01267  Uiso   1.00
C172   C     0.42134   0.30640   0.15820   0.01267  Uiso   1.00
C173   C     0.28254   0.35580   0.46368   0.01267  Uiso   1.00
C174   C     0.25874   0.39099   0.47765   0.01267  Uiso   1.00
C175   C     0.35283   0.26581   0.16925   0.01267  Uiso   1.00
C176   C     0.38984   0.27552   0.14665   0.01267  Uiso   1.00
C177   C     0.70890   0.65566   0.42068   0.01267  Uiso   1.00
C178   C     0.76181   0.57857   0.45094   0.01267  Uiso   1.00
C179   C     0.65960   0.71629   0.20911   0.01267  Uiso   1.00
C180   C     0.57866   0.69360   0.15820   0.01267  Uiso   1.00
C181   C     0.71746   0.64420   0.46368   0.01267  Uiso   1.00
C182   C     0.74126   0.60901   0.47765   0.01267  Uiso   1.00
C183   C     0.64717   0.73419   0.16925   0.01267  Uiso   1.00
C184   C     0.61016   0.72448   0.14665   0.01267  Uiso   1.00
C185   C     0.70890   0.34434   0.57932   0.01267  Uiso   1.00
C186   C     0.76181   0.42143   0.54906   0.01267  Uiso   1.00
C187   C     0.65960   0.28371   0.79089   0.01267  Uiso   1.00
C188   C     0.57866   0.30640   0.84180   0.01267  Uiso   1.00
C189   C     0.71746   0.35580   0.53632   0.01267  Uiso   1.00
C190   C     0.74126   0.39099   0.52235   0.01267  Uiso   1.00
C191   C     0.64717   0.26581   0.83075   0.01267  Uiso   1.00
C192   C     0.61016   0.27552   0.85335   0.01267  Uiso   1.00
C193   C     0.07932   0.84434   0.20890   0.01267  Uiso   1.00
C194   C     0.04906   0.92143   0.26181   0.01267  Uiso   1.00
C195   C     0.29089   0.78371   0.15960   0.01267  Uiso   1.00
C196   C     0.34180   0.80640   0.07866   0.01267  Uiso   1.00
C197   C     0.03632   0.85580   0.21746   0.01267  Uiso   1.00
C198   C     0.02235   0.89099   0.24126   0.01267  Uiso   1.00
C199   C     0.33075   0.76581   0.14717   0.01267  Uiso   1.00
C200   C     0.35335   0.77552   0.11016   0.01267  Uiso   1.00
C201   C     0.92068   0.15566   0.20890   0.01267  Uiso   1.00
C202   C     0.95094   0.07857   0.26181   0.01267  Uiso   1.00
C203   C     0.70911   0.21629   0.15960   0.01267  Uiso   1.00
C204   C     0.65820   0.19360   0.07866   0.01267  Uiso   1.00
C205   C     0.96368   0.14420   0.21746   0.01267  Uiso   1.00
C206   C     0.97765   0.10901   0.24126   0.01267  Uiso   1.00
C207   C     0.66925   0.23419   0.14717   0.01267  Uiso   1.00
C208   C     0.64665   0.22448   0.11016   0.01267  Uiso   1.00
C209   C     0.92068   0.84434   0.79110   0.01267  Uiso   1.00
C210   C     0.95094   0.92143   0.73819   0.01267  Uiso   1.00
C211   C     0.70911   0.78371   0.84040   0.01267  Uiso   1.00
C212   C     0.65820   0.80640   0.92134   0.01267  Uiso   1.00
C213   C     0.96368   0.85580   0.78254   0.01267  Uiso   1.00
C214   C     0.97765   0.89099   0.75874   0.01267  Uiso   1.00
C215   C     0.66925   0.76581   0.85283   0.01267  Uiso   1.00
C216   C     0.64665   0.77552   0.88984   0.01267  Uiso   1.00
C217   C     0.07932   0.15566   0.79110   0.01267  Uiso   1.00
C218   C     0.04906   0.07857   0.73819   0.01267  Uiso   1.00
C219   C     0.29089   0.21629   0.84040   0.01267  Uiso   1.00
C220   C     0.34180   0.19360   0.92134   0.01267  Uiso   1.00
C221   C     0.03632   0.14420   0.78254   0.01267  Uiso   1.00
C222   C     0.02235   0.10901   0.75874   0.01267  Uiso   1.00
C223   C     0.33075   0.23419   0.85283   0.01267  Uiso   1.00
C224   C     0.35335   0.22448   0.88984   0.01267  Uiso   1.00
C225   C     0.20890   0.07932   0.84434   0.01267  Uiso   1.00
C226   C     0.26181   0.04906   0.92143   0.01267  Uiso   1.00
C227   C     0.15960   0.29089   0.78371   0.01267  Uiso   1.00
C228   C     0.07866   0.34180   0.80640   0.01267  Uiso   1.00
C229   C     0.21746   0.03632   0.85580   0.01267  Uiso   1.00
C230   C     0.24126   0.02235   0.89099   0.01267  Uiso   1.00
C231   C     0.14717   0.33075   0.76581   0.01267  Uiso   1.00
C232   C     0.11016   0.35335   0.77552   0.01267  Uiso   1.00
C233   C     0.20890   0.92068   0.15566   0.01267  Uiso   1.00
C234   C     0.26181   0.95094   0.07857   0.01267  Uiso   1.00
C235   C     0.15960   0.70911   0.21629   0.01267  Uiso   1.00
C236   C     0.07866   0.65820   0.19360   0.01267  Uiso   1.00
C237   C     0.21746   0.96368   0.14420   0.01267  Uiso   1.00
C238   C     0.24126   0.97765   0.10901   0.01267  Uiso   1.00
C239   C     0.14717   0.66925   0.23419   0.01267  Uiso   1.00
C240   C     0.11016   0.64665   0.22448   0.01267  Uiso   1.00
C241   C     0.79110   0.92068   0.84434   0.01267  Uiso   1.00
C242   C     0.73819   0.95094   0.92143   0.01267  Uiso   1.00
C243   C     0.84040   0.70911   0.78371   0.01267  Uiso   1.00
C244   C     0.92134   0.65820   0.80640   0.01267  Uiso   1.00
C245   C     0.78254   0.96368   0.85580   0.01267  Uiso   1.00
C246   C     0.75874   0.97765   0.89099   0.01267  Uiso   1.00
C247   C     0.85283   0.66925   0.76581   0.01267  Uiso   1.00
C248   C     0.88984   0.64665   0.77552   0.01267  Uiso   1.00
C249   C     0.79110   0.07932   0.15566   0.01267  Uiso   1.00
C250   C     0.73819   0.04906   0.07857   0.01267  Uiso   1.00
C251   C     0.84040   0.29089   0.21629   0.01267  Uiso   1.00
C252   C     0.92134   0.34180   0.19360   0.01267  Uiso   1.00
C253   C     0.78254   0.03632   0.14420   0.01267  Uiso   1.00
C254   C     0.75874   0.02235   0.10901   0.01267  Uiso   1.00
C255   C     0.85283   0.33075   0.23419   0.01267  Uiso   1.00
C256   C     0.88984   0.35335   0.22448   0.01267  Uiso   1.00
C257   C     0.84434   0.20890   0.07932   0.01267  Uiso   1.00
C258   C     0.92143   0.26181   0.04906   0.01267  Uiso   1.00
C259   C     0.78371   0.15960   0.29089   0.01267  Uiso   1.00
C260   C     0.80640   0.07866   0.34180   0.01267  Uiso   1.00
C261   C     0.85580   0.21746   0.03632   0.01267  Uiso   1.00
C262   C     0.89099   0.24126   0.02235   0.01267  Uiso   1.00
C263   C     0.76581   0.14717   0.33075   0.01267  Uiso   1.00
C264   C     0.77552   0.11016   0.35335   0.01267  Uiso   1.00
C265   C     0.15566   0.20890   0.92068   0.01267  Uiso   1.00
C266   C     0.07857   0.26181   0.95094   0.01267  Uiso   1.00
C267   C     0.21629   0.15960   0.70911   0.01267  Uiso   1.00
C268   C     0.19360   0.07866   0.65820   0.01267  Uiso   1.00
C269   C     0.14420   0.21746   0.96368   0.01267  Uiso   1.00
C270   C     0.10901   0.24126   0.97765   0.01267  Uiso   1.00
C271   C     0.23419   0.14717   0.66925   0.01267  Uiso   1.00
C272   C     0.22448   0.11016   0.64665   0.01267  Uiso   1.00
C273   C     0.84434   0.79110   0.92068   0.01267  Uiso   1.00
C274   C     0.92143   0.73819   0.95094   0.01267  Uiso   1.00
C275   C     0.78371   0.84040   0.70911   0.01267  Uiso   1.00
C276   C     0.80640   0.92134   0.65820   0.01267  Uiso   1.00
C277   C     0.85580   0.78254   0.96368   0.01267  Uiso   1.00
C278   C     0.89099   0.75874   0.97765   0.01267  Uiso   1.00
C279   C     0.76581   0.85283   0.66925   0.01267  Uiso   1.00
C280   C     0.77552   0.88984   0.64665   0.01267  Uiso   1.00
C281   C     0.15566   0.79110   0.07932   0.01267  Uiso   1.00
C282   C     0.07857   0.73819   0.04906   0.01267  Uiso   1.00
C283   C     0.21629   0.84040   0.29089   0.01267  Uiso   1.00
C284   C     0.19360   0.92134   0.34180   0.01267  Uiso   1.00
C285   C     0.14420   0.78254   0.03632   0.01267  Uiso   1.00
C286   C     0.10901   0.75874   0.02235   0.01267  Uiso   1.00
C287   C     0.23419   0.85283   0.33075   0.01267  Uiso   1.00
C288   C     0.22448   0.88984   0.35335   0.01267  Uiso   1.00
C289   C     0.34434   0.57932   0.29110   0.01267  Uiso   1.00
C290   C     0.42143   0.54906   0.23819   0.01267  Uiso   1.00
C291   C     0.28371   0.79089   0.34040   0.01267  Uiso   1.00
C292   C     0.30640   0.84180   0.42134   0.01267  Uiso   1.00
C293   C     0.35580   0.53632   0.28254   0.01267  Uiso   1.00
C294   C     0.39099   0.52235   0.25874   0.01267  Uiso   1.00
C295   C     0.26581   0.83075   0.35283   0.01267  Uiso   1.00
C296   C     0.27552   0.85335   0.38984   0.01267  Uiso   1.00
C297   C     0.65566   0.42068   0.29110   0.01267  Uiso   1.00
C298   C     0.57857   0.45094   0.23819   0.01267  Uiso   1.00
C299   C     0.71629   0.20911   0.34040   0.01267  Uiso   1.00
C300   C     0.69360   0.15820   0.42134   0.01267  Uiso   1.00
C301   C     0.64420   0.46368   0.28254   0.01267  Uiso   1.00
C302   C     0.60901   0.47765   0.25874   0.01267  Uiso   1.00
C303   C     0.73419   0.16925   0.35283   0.01267  Uiso   1.00
C304   C     0.72448   0.14665   0.38984   0.01267  Uiso   1.00
C305   C     0.34434   0.42068   0.70890   0.01267  Uiso   1.00
C306   C     0.42143   0.45094   0.76181   0.01267  Uiso   1.00
C307   C     0.28371   0.20911   0.65960   0.01267  Uiso   1.00
C308   C     0.30640   0.15820   0.57866   0.01267  Uiso   1.00
C309   C     0.35580   0.46368   0.71746   0.01267  Uiso   1.00
C310   C     0.39099   0.47765   0.74126   0.01267  Uiso   1.00
C311   C     0.26581   0.16925   0.64717   0.01267  Uiso   1.00
C312   C     0.27552   0.14665   0.61016   0.01267  Uiso   1.00
C313   C     0.65566   0.57932   0.70890   0.01267  Uiso   1.00
C314   C     0.57857   0.54906   0.76181   0.01267  Uiso   1.00
C315   C     0.71629   0.79089   0.65960   0.01267  Uiso   1.00
C316   C     0.69360   0.84180   0.57866   0.01267  Uiso   1.00
C317   C     0.64420   0.53632   0.71746   0.01267  Uiso   1.00
C318   C     0.60901   0.52235   0.74126   0.01267  Uiso   1.00
C319   C     0.73419   0.83075   0.64717   0.01267  Uiso   1.00
C320   C     0.72448   0.85335   0.61016   0.01267  Uiso   1.00
C321   C     0.57932   0.70890   0.65566   0.01267  Uiso   1.00
C322   C     0.54906   0.76181   0.57857   0.01267  Uiso   1.00
C323   C     0.79089   0.65960   0.71629   0.01267  Uiso   1.00
C324   C     0.84180   0.57866   0.69360   0.01267  Uiso   1.00
C325   C     0.53632   0.71746   0.64420   0.01267  Uiso   1.00
C326   C     0.52235   0.74126   0.60901   0.01267  Uiso   1.00
C327   C     0.83075   0.64717   0.73419   0.01267  Uiso   1.00
C328   C     0.85335   0.61016   0.72448   0.01267  Uiso   1.00
C329   C     0.42068   0.70890   0.34434   0.01267  Uiso   1.00
C330   C     0.45094   0.76181   0.42143   0.01267  Uiso   1.00
C331   C     0.20911   0.65960   0.28371   0.01267  Uiso   1.00
C332   C     0.15820   0.57866   0.30640   0.01267  Uiso   1.00
C333   C     0.46368   0.71746   0.35580   0.01267  Uiso   1.00
C334   C     0.47765   0.74126   0.39099   0.01267  Uiso   1.00
C335   C     0.16925   0.64717   0.26581   0.01267  Uiso   1.00
C336   C     0.14665   0.61016   0.27552   0.01267  Uiso   1.00
C337   C     0.42068   0.29110   0.65566   0.01267  Uiso   1.00
C338   C     0.45094   0.23819   0.57857   0.01267  Uiso   1.00
C339   C     0.20911   0.34040   0.71629   0.01267  Uiso   1.00
C340   C     0.15820   0.42134   0.69360   0.01267  Uiso   1.00
C341   C     0.46368   0.28254   0.64420   0.01267  Uiso   1.00
C342   C     0.47765   0.25874   0.60901   0.01267  Uiso   1.00
C343   C     0.16925   0.35283   0.73419   0.01267  Uiso   1.00
C344   C     0.14665   0.38984   0.72448   0.01267  Uiso   1.00
C345   C     0.57932   0.29110   0.34434   0.01267  Uiso   1.00
C346   C     0.54906   0.23819   0.42143   0.01267  Uiso   1.00
C347   C     0.79089   0.34040   0.28371   0.01267  Uiso   1.00
C348   C     0.84180   0.42134   0.30640   0.01267  Uiso   1.00
C349   C     0.53632   0.28254   0.35580   0.01267  Uiso   1.00
C350   C     0.52235   0.25874   0.39099   0.01267  Uiso   1.00
C351   C     0.83075   0.35283   0.26581   0.01267  Uiso   1.00
C352   C     0.85335   0.38984   0.27552   0.01267  Uiso   1.00
C353   C     0.70890   0.34434   0.42068   0.01267  Uiso   1.00
C354   C     0.76181   0.42143   0.45094   0.01267  Uiso   1.00
C355   C     0.65960   0.28371   0.20911   0.01267  Uiso   1.00
C356   C     0.57866   0.30640   0.15820   0.01267  Uiso   1.00
C357   C     0.71746   0.35580   0.46368   0.01267  Uiso   1.00
C358   C     0.74126   0.39099   0.47765   0.01267  Uiso   1.00
C359   C     0.64717   0.26581   0.16925   0.01267  Uiso   1.00
C360   C     0.61016   0.27552   0.14665   0.01267  Uiso   1.00
C361   C     0.70890   0.65566   0.57932   0.01267  Uiso   1.00
C362   C     0.76181   0.57857   0.54906   0.01267  Uiso   1.00
C363   C     0.65960   0.71629   0.79089   0.01267  Uiso   1.00
C364   C     0.57866   0.69360   0.84180   0.01267  Uiso   1.00
C365   C     0.71746   0.64420   0.53632   0.01267  Uiso   1.00
C366   C     0.74126   0.60901   0.52235   0.01267  Uiso   1.00
C367   C     0.64717   0.73419   0.83075   0.01267  Uiso   1.00
C368   C     0.61016   0.72448   0.85335   0.01267  Uiso   1.00
C369   C     0.29110   0.34434   0.57932   0.01267  Uiso   1.00
C370   C     0.23819   0.42143   0.54906   0.01267  Uiso   1.00
C371   C     0.34040   0.28371   0.79089   0.01267  Uiso   1.00
C372   C     0.42134   0.30640   0.84180   0.01267  Uiso   1.00
C373   C     0.28254   0.35580   0.53632   0.01267  Uiso   1.00
C374   C     0.25874   0.39099   0.52235   0.01267  Uiso   1.00
C375   C     0.35283   0.26581   0.83075   0.01267  Uiso   1.00
C376   C     0.38984   0.27552   0.85335   0.01267  Uiso   1.00
C377   C     0.29110   0.65566   0.42068   0.01267  Uiso   1.00
C378   C     0.23819   0.57857   0.45094   0.01267  Uiso   1.00
C379   C     0.34040   0.71629   0.20911   0.01267  Uiso   1.00
C380   C     0.42134   0.69360   0.15820   0.01267  Uiso   1.00
C381   C     0.28254   0.64420   0.46368   0.01267  Uiso   1.00
C382   C     0.25874   0.60901   0.47765   0.01267  Uiso   1.00
C383   C     0.35283   0.73419   0.16925   0.01267  Uiso   1.00
C384   C     0.38984   0.72448   0.14665   0.01267  Uiso   1.00
C385   C     0.62660   0.03920   1.00000   0.01267  Uiso   1.00
C386   C     0.58370   0.09990   1.00000   0.01267  Uiso   1.00
C387   C     0.56110   0.14230   0.00000   0.01267  Uiso   1.00
C388   C     0.37340   0.96080   1.00000   0.01267  Uiso   1.00
C389   C     0.41630   0.90010   0.00000   0.01267  Uiso   1.00
C390   C     0.43890   0.85770   0.00000   0.01267  Uiso   1.00
C391   C     0.37340   0.03920   1.00000   0.01267  Uiso   1.00
C392   C     0.41630   0.09990   1.00000   0.01267  Uiso   1.00
C393   C     0.43890   0.14230   0.00000   0.01267  Uiso   1.00
C394   C     0.62660   0.96080   1.00000   0.01267  Uiso   1.00
C395   C     0.58370   0.90010   0.00000   0.01267  Uiso   1.00
C396   C     0.56110   0.85770   0.00000   0.01267  Uiso   1.00
C397   C     0.00000   0.62660   0.03920   0.01267  Uiso   1.00
C398   C     0.00000   0.58370   0.09990   0.01267  Uiso   1.00
C399   C     0.00000   0.56110   0.14230   0.01267  Uiso   1.00
C400   C     0.00000   0.37340   0.96080   0.01267  Uiso   1.00
C401   C     0.00000   0.41630   0.90010   0.01267  Uiso   1.00
C402   C     0.00000   0.43890   0.85770   0.01267  Uiso   1.00
C403   C     0.00000   0.37340   0.03920   0.01267  Uiso   1.00
C404   C     0.00000   0.41630   0.09990   0.01267  Uiso   1.00
C405   C     0.00000   0.43890   0.14230   0.01267  Uiso   1.00
C406   C     0.00000   0.62660   0.96080   0.01267  Uiso   1.00
C407   C     0.00000   0.58370   0.90010   0.01267  Uiso   1.00
C408   C     0.00000   0.56110   0.85770   0.01267  Uiso   1.00
C409   C     0.03920   0.00000   0.62660   0.01267  Uiso   1.00
C410   C     0.09990   0.00000   0.58370   0.01267  Uiso   1.00
C411   C     0.14230   0.00000   0.56110   0.01267  Uiso   1.00
C412   C     0.96080   0.00000   0.37340   0.01267  Uiso   1.00
C413   C     0.90010   0.00000   0.41630   0.01267  Uiso   1.00
C414   C     0.85770   0.00000   0.43890   0.01267  Uiso   1.00
C415   C     0.03920   0.00000   0.37340   0.01267  Uiso   1.00
C416   C     0.09990   0.00000   0.41630   0.01267  Uiso   1.00
C417   C     0.14230   0.00000   0.43890   0.01267  Uiso   1.00
C418   C     0.96080   0.00000   0.62660   0.01267  Uiso   1.00
C419   C     0.90010   0.00000   0.58370   0.01267  Uiso   1.00
C420   C     0.85770   0.00000   0.56110   0.01267  Uiso   1.00
C421   C     0.53920   0.12660   0.50000   0.01267  Uiso   1.00
C422   C     0.59990   0.08370   0.50000   0.01267  Uiso   1.00
C423   C     0.64230   0.06110   0.50000   0.01267  Uiso   1.00
C424   C     0.46080   0.87340   0.50000   0.01267  Uiso   1.00
C425   C     0.40010   0.91630   0.50000   0.01267  Uiso   1.00
C426   C     0.35770   0.93890   0.50000   0.01267  Uiso   1.00
C427   C     0.53920   0.87340   0.50000   0.01267  Uiso   1.00
C428   C     0.59990   0.91630   0.50000   0.01267  Uiso   1.00
C429   C     0.64230   0.93890   0.50000   0.01267  Uiso   1.00
C430   C     0.46080   0.12660   0.50000   0.01267  Uiso   1.00
C431   C     0.40010   0.08370   0.50000   0.01267  Uiso   1.00
C432   C     0.35770   0.06110   0.50000   0.01267  Uiso   1.00
C433   C     0.12660   0.50000   0.46080   0.01267  Uiso   1.00
C434   C     0.08370   0.50000   0.40010   0.01267  Uiso   1.00
C435   C     0.06110   0.50000   0.35770   0.01267  Uiso   1.00
C436   C     0.87340   0.50000   0.53920   0.01267  Uiso   1.00
C437   C     0.91630   0.50000   0.59990   0.01267  Uiso   1.00
C438   C     0.93890   0.50000   0.64230   0.01267  Uiso   1.00
C439   C     0.87340   0.50000   0.46080   0.01267  Uiso   1.00
C440   C     0.91630   0.50000   0.40010   0.01267  Uiso   1.00
C441   C     0.93890   0.50000   0.35770   0.01267  Uiso   1.00
C442   C     0.12660   0.50000   0.53920   0.01267  Uiso   1.00
C443   C     0.08370   0.50000   0.59990   0.01267  Uiso   1.00
C444   C     0.06110   0.50000   0.64230   0.01267  Uiso   1.00
C445   C     0.50000   0.53920   0.87340   0.01267  Uiso   1.00
C446   C     0.50000   0.59990   0.91630   0.01267  Uiso   1.00
C447   C     0.50000   0.64230   0.93890   0.01267  Uiso   1.00
C448   C     0.50000   0.46080   0.12660   0.01267  Uiso   1.00
C449   C     0.50000   0.40010   0.08370   0.01267  Uiso   1.00
C450   C     0.50000   0.35770   0.06110   0.01267  Uiso   1.00
C451   C     0.50000   0.53920   0.12660   0.01267  Uiso   1.00
C452   C     0.50000   0.59990   0.08370   0.01267  Uiso   1.00
C453   C     0.50000   0.64230   0.06110   0.01267  Uiso   1.00
C454   C     0.50000   0.46080   0.87340   0.01267  Uiso   1.00
C455   C     0.50000   0.40010   0.91630   0.01267  Uiso   1.00
C456   C     0.50000   0.35770   0.93890   0.01267  Uiso   1.00
C457   C     0.00000   0.20400   0.82270   0.01267  Uiso   1.00
C458   C     0.00000   0.16600   0.79760   0.01267  Uiso   1.00
C459   C     0.00000   0.79600   0.82270   0.01267  Uiso   1.00
C460   C     0.00000   0.83400   0.79760   0.01267  Uiso   1.00
C461   C     0.00000   0.20400   0.17730   0.01267  Uiso   1.00
C462   C     0.00000   0.16600   0.20240   0.01267  Uiso   1.00
C463   C     0.00000   0.79600   0.17730   0.01267  Uiso   1.00
C464   C     0.00000   0.83400   0.20240   0.01267  Uiso   1.00
C465   C     0.82270   0.00000   0.20400   0.01267  Uiso   1.00
C466   C     0.79760   0.00000   0.16600   0.01267  Uiso   1.00
C467   C     0.82270   0.00000   0.79600   0.01267  Uiso   1.00
C468   C     0.79760   0.00000   0.83400   0.01267  Uiso   1.00
C469   C     0.17730   0.00000   0.20400   0.01267  Uiso   1.00
C470   C     0.20240   0.00000   0.16600   0.01267  Uiso   1.00
C471   C     0.17730   0.00000   0.79600   0.01267  Uiso   1.00
C472   C     0.20240   0.00000   0.83400   0.01267  Uiso   1.00
C473   C     0.20400   0.82270   0.00000   0.01267  Uiso   1.00
C474   C     0.16600   0.79760   0.00000   0.01267  Uiso   1.00
C475   C     0.79600   0.82270   0.00000   0.01267  Uiso   1.00
C476   C     0.83400   0.79760   0.00000   0.01267  Uiso   1.00
C477   C     0.20400   0.17730   0.00000   0.01267  Uiso   1.00
C478   C     0.16600   0.20240   0.00000   0.01267  Uiso   1.00
C479   C     0.79600   0.17730   0.00000   0.01267  Uiso   1.00
C480   C     0.83400   0.20240   0.00000   0.01267  Uiso   1.00
C481   C     0.70400   0.50000   0.67730   0.01267  Uiso   1.00
C482   C     0.66600   0.50000   0.70240   0.01267  Uiso   1.00
C483   C     0.29600   0.50000   0.67730   0.01267  Uiso   1.00
C484   C     0.33400   0.50000   0.70240   0.01267  Uiso   1.00
C485   C     0.70400   0.50000   0.32270   0.01267  Uiso   1.00
C486   C     0.66600   0.50000   0.29760   0.01267  Uiso   1.00
C487   C     0.29600   0.50000   0.32270   0.01267  Uiso   1.00
C488   C     0.33400   0.50000   0.29760   0.01267  Uiso   1.00
C489   C     0.50000   0.32270   0.29600   0.01267  Uiso   1.00
C490   C     0.50000   0.29760   0.33400   0.01267  Uiso   1.00
C491   C     0.50000   0.32270   0.70400   0.01267  Uiso   1.00
C492   C     0.50000   0.29760   0.66600   0.01267  Uiso   1.00
C493   C     0.50000   0.67730   0.29600   0.01267  Uiso   1.00
C494   C     0.50000   0.70240   0.33400   0.01267  Uiso   1.00
C495   C     0.50000   0.67730   0.70400   0.01267  Uiso   1.00
C496   C     0.50000   0.70240   0.66600   0.01267  Uiso   1.00
C497   C     0.32270   0.70400   0.50000   0.01267  Uiso   1.00
C498   C     0.29760   0.66600   0.50000   0.01267  Uiso   1.00
C499   C     0.32270   0.29600   0.50000   0.01267  Uiso   1.00
C500   C     0.29760   0.33400   0.50000   0.01267  Uiso   1.00
C501   C     0.67730   0.70400   0.50000   0.01267  Uiso   1.00
C502   C     0.70240   0.66600   0.50000   0.01267  Uiso   1.00
C503   C     0.67730   0.29600   0.50000   0.01267  Uiso   1.00
C504   C     0.70240   0.33400   0.50000   0.01267  Uiso   1.00
C505   C     0.57760   0.25000   0.92240   0.01267  Uiso   1.00
C506   C     0.60991   0.25000   0.89009   0.01267  Uiso   1.00
C507   C     0.42240   0.75000   0.92240   0.01267  Uiso   1.00
C508   C     0.39009   0.75000   0.89009   0.01267  Uiso   1.00
C509   C     0.42240   0.25000   0.07760   0.01267  Uiso   1.00
C510   C     0.39009   0.25000   0.10991   0.01267  Uiso   1.00
C511   C     0.57760   0.75000   0.07760   0.01267  Uiso   1.00
C512   C     0.60991   0.75000   0.10991   0.01267  Uiso   1.00
C513   C     0.92240   0.57760   0.25000   0.01267  Uiso   1.00
C514   C     0.89009   0.60991   0.25000   0.01267  Uiso   1.00
C515   C     0.92240   0.42240   0.75000   0.01267  Uiso   1.00
C516   C     0.89009   0.39009   0.75000   0.01267  Uiso   1.00
C517   C     0.07760   0.42240   0.25000   0.01267  Uiso   1.00
C518   C     0.10991   0.39009   0.25000   0.01267  Uiso   1.00
C519   C     0.07760   0.57760   0.75000   0.01267  Uiso   1.00
C520   C     0.10991   0.60991   0.75000   0.01267  Uiso   1.00
C521   C     0.25000   0.92240   0.57760   0.01267  Uiso   1.00
C522   C     0.25000   0.89009   0.60991   0.01267  Uiso   1.00
C523   C     0.75000   0.92240   0.42240   0.01267  Uiso   1.00
C524   C     0.75000   0.89009   0.39009   0.01267  Uiso   1.00
C525   C     0.25000   0.07760   0.42240   0.01267  Uiso   1.00
C526   C     0.25000   0.10991   0.39009   0.01267  Uiso   1.00
C527   C     0.75000   0.07760   0.57760   0.01267  Uiso   1.00
C528   C     0.75000   0.10991   0.60991   0.01267  Uiso   1.00
C529   C     0.42240   0.75000   0.07760   0.01267  Uiso   1.00
C530   C     0.39009   0.75000   0.10991   0.01267  Uiso   1.00
C531   C     0.57760   0.25000   0.07760   0.01267  Uiso   1.00
C532   C     0.60991   0.25000   0.10991   0.01267  Uiso   1.00
C533   C     0.57760   0.75000   0.92240   0.01267  Uiso   1.00
C534   C     0.60991   0.75000   0.89009   0.01267  Uiso   1.00
C535   C     0.42240   0.25000   0.92240   0.01267  Uiso   1.00
C536   C     0.39009   0.25000   0.89009   0.01267  Uiso   1.00
C537   C     0.07760   0.42240   0.75000   0.01267  Uiso   1.00
C538   C     0.10991   0.39009   0.75000   0.01267  Uiso   1.00
C539   C     0.07760   0.57760   0.25000   0.01267  Uiso   1.00
C540   C     0.10991   0.60991   0.25000   0.01267  Uiso   1.00
C541   C     0.92240   0.57760   0.75000   0.01267  Uiso   1.00
C542   C     0.89009   0.60991   0.75000   0.01267  Uiso   1.00
C543   C     0.92240   0.42240   0.25000   0.01267  Uiso   1.00
C544   C     0.89009   0.39009   0.25000   0.01267  Uiso   1.00
C545   C     0.75000   0.07760   0.42240   0.01267  Uiso   1.00
C546   C     0.75000   0.10991   0.39009   0.01267  Uiso   1.00
C547   C     0.25000   0.07760   0.57760   0.01267  Uiso   1.00
C548   C     0.25000   0.10991   0.60991   0.01267  Uiso   1.00
C549   C     0.75000   0.92240   0.57760   0.01267  Uiso   1.00
C550   C     0.75000   0.89009   0.60991   0.01267  Uiso   1.00
C551   C     0.25000   0.92240   0.42240   0.01267  Uiso   1.00
C552   C     0.25000   0.89009   0.39009   0.01267  Uiso   1.00
C553   C     0.65410   0.00000   0.00000   0.01267  Uiso   1.00
C554   C     0.34590   0.00000   0.00000   0.01267  Uiso   1.00
C555   C     0.00000   0.65410   0.00000   0.01267  Uiso   1.00
C556   C     0.00000   0.34590   0.00000   0.01267  Uiso   1.00
C557   C     0.00000   0.00000   0.65410   0.01267  Uiso   1.00
C558   C     0.00000   0.00000   0.34590   0.01267  Uiso   1.00
C559   C     0.50000   0.15410   0.50000   0.01267  Uiso   1.00
C560   C     0.50000   0.84590   0.50000   0.01267  Uiso   1.00
C561   C     0.15410   0.50000   0.50000   0.01267  Uiso   1.00
C562   C     0.84590   0.50000   0.50000   0.01267  Uiso   1.00
C563   C     0.50000   0.50000   0.84590   0.01267  Uiso   1.00
C564   C     0.50000   0.50000   0.15410   0.01267  Uiso   1.00
N1     N     0.88632   0.16533   0.79832   0.01267  Uiso   1.00
N2     N     0.92956   0.05388   0.72189   0.01267  Uiso   1.00
N3     N     0.74117   0.20208   0.83007   0.01267  Uiso   1.00
N4     N     0.66788   0.16866   0.94622   0.01267  Uiso   1.00
N5     N     0.11368   0.83467   0.79832   0.01267  Uiso   1.00
N6     N     0.07044   0.94612   0.72189   0.01267  Uiso   1.00
N7     N     0.25883   0.79792   0.83007   0.01267  Uiso   1.00
N8     N     0.33212   0.83134   0.94622   0.01267  Uiso   1.00
N9     N     0.11368   0.16533   0.20168   0.01267  Uiso   1.00
N10    N     0.07044   0.05388   0.27811   0.01267  Uiso   1.00
N11    N     0.25883   0.20208   0.16993   0.01267  Uiso   1.00
N12    N     0.33212   0.16866   0.05378   0.01267  Uiso   1.00
N13    N     0.88632   0.83467   0.20168   0.01267  Uiso   1.00
N14    N     0.92956   0.94612   0.27811   0.01267  Uiso   1.00
N15    N     0.74117   0.79792   0.16993   0.01267  Uiso   1.00
N16    N     0.66788   0.83134   0.05378   0.01267  Uiso   1.00
N17    N     0.79832   0.88632   0.16533   0.01267  Uiso   1.00
N18    N     0.72189   0.92956   0.05388   0.01267  Uiso   1.00
N19    N     0.83007   0.74117   0.20208   0.01267  Uiso   1.00
N20    N     0.94622   0.66788   0.16866   0.01267  Uiso   1.00
N21    N     0.79832   0.11368   0.83467   0.01267  Uiso   1.00
N22    N     0.72189   0.07044   0.94612   0.01267  Uiso   1.00
N23    N     0.83007   0.25883   0.79792   0.01267  Uiso   1.00
N24    N     0.94622   0.33212   0.83134   0.01267  Uiso   1.00
N25    N     0.20168   0.11368   0.16533   0.01267  Uiso   1.00
N26    N     0.27811   0.07044   0.05388   0.01267  Uiso   1.00
N27    N     0.16993   0.25883   0.20208   0.01267  Uiso   1.00
N28    N     0.05378   0.33212   0.16866   0.01267  Uiso   1.00
N29    N     0.20168   0.88632   0.83467   0.01267  Uiso   1.00
N30    N     0.27811   0.92956   0.94612   0.01267  Uiso   1.00
N31    N     0.16993   0.74117   0.79792   0.01267  Uiso   1.00
N32    N     0.05378   0.66788   0.83134   0.01267  Uiso   1.00
N33    N     0.16533   0.79832   0.88632   0.01267  Uiso   1.00
N34    N     0.05388   0.72189   0.92956   0.01267  Uiso   1.00
N35    N     0.20208   0.83007   0.74117   0.01267  Uiso   1.00
N36    N     0.16866   0.94622   0.66788   0.01267  Uiso   1.00
N37    N     0.83467   0.79832   0.11368   0.01267  Uiso   1.00
N38    N     0.94612   0.72189   0.07044   0.01267  Uiso   1.00
N39    N     0.79792   0.83007   0.25883   0.01267  Uiso   1.00
N40    N     0.83134   0.94622   0.33212   0.01267  Uiso   1.00
N41    N     0.16533   0.20168   0.11368   0.01267  Uiso   1.00
N42    N     0.05388   0.27811   0.07044   0.01267  Uiso   1.00
N43    N     0.20208   0.16993   0.25883   0.01267  Uiso   1.00
N44    N     0.16866   0.05378   0.33212   0.01267  Uiso   1.00
N45    N     0.83467   0.20168   0.88632   0.01267  Uiso   1.00
N46    N     0.94612   0.27811   0.92956   0.01267  Uiso   1.00
N47    N     0.79792   0.16993   0.74117   0.01267  Uiso   1.00
N48    N     0.83134   0.05378   0.66788   0.01267  Uiso   1.00
N49    N     0.66533   0.38632   0.70168   0.01267  Uiso   1.00
N50    N     0.55388   0.42956   0.77811   0.01267  Uiso   1.00
N51    N     0.70208   0.24117   0.66993   0.01267  Uiso   1.00
N52    N     0.66866   0.16788   0.55378   0.01267  Uiso   1.00
N53    N     0.33467   0.61368   0.70168   0.01267  Uiso   1.00
N54    N     0.44612   0.57044   0.77811   0.01267  Uiso   1.00
N55    N     0.29792   0.75883   0.66993   0.01267  Uiso   1.00
N56    N     0.33134   0.83212   0.55378   0.01267  Uiso   1.00
N57    N     0.66533   0.61368   0.29832   0.01267  Uiso   1.00
N58    N     0.55388   0.57044   0.22189   0.01267  Uiso   1.00
N59    N     0.70208   0.75883   0.33007   0.01267  Uiso   1.00
N60    N     0.66866   0.83212   0.44622   0.01267  Uiso   1.00
N61    N     0.33467   0.38632   0.29832   0.01267  Uiso   1.00
N62    N     0.44612   0.42956   0.22189   0.01267  Uiso   1.00
N63    N     0.29792   0.24117   0.33007   0.01267  Uiso   1.00
N64    N     0.33134   0.16788   0.44622   0.01267  Uiso   1.00
N65    N     0.38632   0.29832   0.33467   0.01267  Uiso   1.00
N66    N     0.42956   0.22189   0.44612   0.01267  Uiso   1.00
N67    N     0.24117   0.33007   0.29792   0.01267  Uiso   1.00
N68    N     0.16788   0.44622   0.33134   0.01267  Uiso   1.00
N69    N     0.61368   0.29832   0.66533   0.01267  Uiso   1.00
N70    N     0.57044   0.22189   0.55388   0.01267  Uiso   1.00
N71    N     0.75883   0.33007   0.70208   0.01267  Uiso   1.00
N72    N     0.83212   0.44622   0.66866   0.01267  Uiso   1.00
N73    N     0.61368   0.70168   0.33467   0.01267  Uiso   1.00
N74    N     0.57044   0.77811   0.44612   0.01267  Uiso   1.00
N75    N     0.75883   0.66993   0.29792   0.01267  Uiso   1.00
N76    N     0.83212   0.55378   0.33134   0.01267  Uiso   1.00
N77    N     0.38632   0.70168   0.66533   0.01267  Uiso   1.00
N78    N     0.42956   0.77811   0.55388   0.01267  Uiso   1.00
N79    N     0.24117   0.66993   0.70208   0.01267  Uiso   1.00
N80    N     0.16788   0.55378   0.66866   0.01267  Uiso   1.00
N81    N     0.29832   0.66533   0.61368   0.01267  Uiso   1.00
N82    N     0.22189   0.55388   0.57044   0.01267  Uiso   1.00
N83    N     0.33007   0.70208   0.75883   0.01267  Uiso   1.00
N84    N     0.44622   0.66866   0.83212   0.01267  Uiso   1.00
N85    N     0.29832   0.33467   0.38632   0.01267  Uiso   1.00
N86    N     0.22189   0.44612   0.42956   0.01267  Uiso   1.00
N87    N     0.33007   0.29792   0.24117   0.01267  Uiso   1.00
N88    N     0.44622   0.33134   0.16788   0.01267  Uiso   1.00
N89    N     0.70168   0.66533   0.38632   0.01267  Uiso   1.00
N90    N     0.77811   0.55388   0.42956   0.01267  Uiso   1.00
N91    N     0.66993   0.70208   0.24117   0.01267  Uiso   1.00
N92    N     0.55378   0.66866   0.16788   0.01267  Uiso   1.00
N93    N     0.70168   0.33467   0.61368   0.01267  Uiso   1.00
N94    N     0.77811   0.44612   0.57044   0.01267  Uiso   1.00
N95    N     0.66993   0.29792   0.75883   0.01267  Uiso   1.00
N96    N     0.55378   0.33134   0.83212   0.01267  Uiso   1.00
N97    N     0.11368   0.83467   0.20168   0.01267  Uiso   1.00
N98    N     0.07044   0.94612   0.27811   0.01267  Uiso   1.00
N99    N     0.25883   0.79792   0.16993   0.01267  Uiso   1.00
N100   N     0.33212   0.83134   0.05378   0.01267  Uiso   1.00
N101   N     0.88632   0.16533   0.20168   0.01267  Uiso   1.00
N102   N     0.92956   0.05388   0.27811   0.01267  Uiso   1.00
N103   N     0.74117   0.20208   0.16993   0.01267  Uiso   1.00
N104   N     0.66788   0.16866   0.05378   0.01267  Uiso   1.00
N105   N     0.88632   0.83467   0.79832   0.01267  Uiso   1.00
N106   N     0.92956   0.94612   0.72189   0.01267  Uiso   1.00
N107   N     0.74117   0.79792   0.83007   0.01267  Uiso   1.00
N108   N     0.66788   0.83134   0.94622   0.01267  Uiso   1.00
N109   N     0.11368   0.16533   0.79832   0.01267  Uiso   1.00
N110   N     0.07044   0.05388   0.72189   0.01267  Uiso   1.00
N111   N     0.25883   0.20208   0.83007   0.01267  Uiso   1.00
N112   N     0.33212   0.16866   0.94622   0.01267  Uiso   1.00
N113   N     0.20168   0.11368   0.83467   0.01267  Uiso   1.00
N114   N     0.27811   0.07044   0.94612   0.01267  Uiso   1.00
N115   N     0.16993   0.25883   0.79792   0.01267  Uiso   1.00
N116   N     0.05378   0.33212   0.83134   0.01267  Uiso   1.00
N117   N     0.20168   0.88632   0.16533   0.01267  Uiso   1.00
N118   N     0.27811   0.92956   0.05388   0.01267  Uiso   1.00
N119   N     0.16993   0.74117   0.20208   0.01267  Uiso   1.00
N120   N     0.05378   0.66788   0.16866   0.01267  Uiso   1.00
N121   N     0.79832   0.88632   0.83467   0.01267  Uiso   1.00
N122   N     0.72189   0.92956   0.94612   0.01267  Uiso   1.00
N123   N     0.83007   0.74117   0.79792   0.01267  Uiso   1.00
N124   N     0.94622   0.66788   0.83134   0.01267  Uiso   1.00
N125   N     0.79832   0.11368   0.16533   0.01267  Uiso   1.00
N126   N     0.72189   0.07044   0.05388   0.01267  Uiso   1.00
N127   N     0.83007   0.25883   0.20208   0.01267  Uiso   1.00
N128   N     0.94622   0.33212   0.16866   0.01267  Uiso   1.00
N129   N     0.83467   0.20168   0.11368   0.01267  Uiso   1.00
N130   N     0.94612   0.27811   0.07044   0.01267  Uiso   1.00
N131   N     0.79792   0.16993   0.25883   0.01267  Uiso   1.00
N132   N     0.83134   0.05378   0.33212   0.01267  Uiso   1.00
N133   N     0.16533   0.20168   0.88632   0.01267  Uiso   1.00
N134   N     0.05388   0.27811   0.92956   0.01267  Uiso   1.00
N135   N     0.20208   0.16993   0.74117   0.01267  Uiso   1.00
N136   N     0.16866   0.05378   0.66788   0.01267  Uiso   1.00
N137   N     0.83467   0.79832   0.88632   0.01267  Uiso   1.00
N138   N     0.94612   0.72189   0.92956   0.01267  Uiso   1.00
N139   N     0.79792   0.83007   0.74117   0.01267  Uiso   1.00
N140   N     0.83134   0.94622   0.66788   0.01267  Uiso   1.00
N141   N     0.16533   0.79832   0.11368   0.01267  Uiso   1.00
N142   N     0.05388   0.72189   0.07044   0.01267  Uiso   1.00
N143   N     0.20208   0.83007   0.25883   0.01267  Uiso   1.00
N144   N     0.16866   0.94622   0.33212   0.01267  Uiso   1.00
N145   N     0.33467   0.61368   0.29832   0.01267  Uiso   1.00
N146   N     0.44612   0.57044   0.22189   0.01267  Uiso   1.00
N147   N     0.29792   0.75883   0.33007   0.01267  Uiso   1.00
N148   N     0.33134   0.83212   0.44622   0.01267  Uiso   1.00
N149   N     0.66533   0.38632   0.29832   0.01267  Uiso   1.00
N150   N     0.55388   0.42956   0.22189   0.01267  Uiso   1.00
N151   N     0.70208   0.24117   0.33007   0.01267  Uiso   1.00
N152   N     0.66866   0.16788   0.44622   0.01267  Uiso   1.00
N153   N     0.33467   0.38632   0.70168   0.01267  Uiso   1.00
N154   N     0.44612   0.42956   0.77811   0.01267  Uiso   1.00
N155   N     0.29792   0.24117   0.66993   0.01267  Uiso   1.00
N156   N     0.33134   0.16788   0.55378   0.01267  Uiso   1.00
N157   N     0.66533   0.61368   0.70168   0.01267  Uiso   1.00
N158   N     0.55388   0.57044   0.77811   0.01267  Uiso   1.00
N159   N     0.70208   0.75883   0.66993   0.01267  Uiso   1.00
N160   N     0.66866   0.83212   0.55378   0.01267  Uiso   1.00
N161   N     0.61368   0.70168   0.66533   0.01267  Uiso   1.00
N162   N     0.57044   0.77811   0.55388   0.01267  Uiso   1.00
N163   N     0.75883   0.66993   0.70208   0.01267  Uiso   1.00
N164   N     0.83212   0.55378   0.66866   0.01267  Uiso   1.00
N165   N     0.38632   0.70168   0.33467   0.01267  Uiso   1.00
N166   N     0.42956   0.77811   0.44612   0.01267  Uiso   1.00
N167   N     0.24117   0.66993   0.29792   0.01267  Uiso   1.00
N168   N     0.16788   0.55378   0.33134   0.01267  Uiso   1.00
N169   N     0.38632   0.29832   0.66533   0.01267  Uiso   1.00
N170   N     0.42956   0.22189   0.55388   0.01267  Uiso   1.00
N171   N     0.24117   0.33007   0.70208   0.01267  Uiso   1.00
N172   N     0.16788   0.44622   0.66866   0.01267  Uiso   1.00
N173   N     0.61368   0.29832   0.33467   0.01267  Uiso   1.00
N174   N     0.57044   0.22189   0.44612   0.01267  Uiso   1.00
N175   N     0.75883   0.33007   0.29792   0.01267  Uiso   1.00
N176   N     0.83212   0.44622   0.33134   0.01267  Uiso   1.00
N177   N     0.70168   0.33467   0.38632   0.01267  Uiso   1.00
N178   N     0.77811   0.44612   0.42956   0.01267  Uiso   1.00
N179   N     0.66993   0.29792   0.24117   0.01267  Uiso   1.00
N180   N     0.55378   0.33134   0.16788   0.01267  Uiso   1.00
N181   N     0.70168   0.66533   0.61368   0.01267  Uiso   1.00
N182   N     0.77811   0.55388   0.57044   0.01267  Uiso   1.00
N183   N     0.66993   0.70208   0.75883   0.01267  Uiso   1.00
N184   N     0.55378   0.66866   0.83212   0.01267  Uiso   1.00
N185   N     0.29832   0.33467   0.61368   0.01267  Uiso   1.00
N186   N     0.22189   0.44612   0.57044   0.01267  Uiso   1.00
N187   N     0.33007   0.29792   0.75883   0.01267  Uiso   1.00
N188   N     0.44622   0.33134   0.83212   0.01267  Uiso   1.00
N189   N     0.29832   0.66533   0.38632   0.01267  Uiso   1.00
N190   N     0.22189   0.55388   0.42956   0.01267  Uiso   1.00
N191   N     0.33007   0.70208   0.24117   0.01267  Uiso   1.00
N192   N     0.44622   0.66866   0.16788   0.01267  Uiso   1.00
N193   N     0.00000   0.23450   0.84240   0.01267  Uiso   1.00
N194   N     0.00000   0.76550   0.84240   0.01267  Uiso   1.00
N195   N     0.00000   0.23450   0.15760   0.01267  Uiso   1.00
N196   N     0.00000   0.76550   0.15760   0.01267  Uiso   1.00
N197   N     0.84240   0.00000   0.23450   0.01267  Uiso   1.00
N198   N     0.84240   0.00000   0.76550   0.01267  Uiso   1.00
N199   N     0.15760   0.00000   0.23450   0.01267  Uiso   1.00
N200   N     0.15760   0.00000   0.76550   0.01267  Uiso   1.00
N201   N     0.23450   0.84240   0.00000   0.01267  Uiso   1.00
N202   N     0.76550   0.84240   0.00000   0.01267  Uiso   1.00
N203   N     0.23450   0.15760   1.00000   0.01267  Uiso   1.00
N204   N     0.76550   0.15760   0.00000   0.01267  Uiso   1.00
N205   N     0.73450   0.50000   0.65760   0.01267  Uiso   1.00
N206   N     0.26550   0.50000   0.65760   0.01267  Uiso   1.00
N207   N     0.73450   0.50000   0.34240   0.01267  Uiso   1.00
N208   N     0.26550   0.50000   0.34240   0.01267  Uiso   1.00
N209   N     0.50000   0.34240   0.26550   0.01267  Uiso   1.00
N210   N     0.50000   0.34240   0.73450   0.01267  Uiso   1.00
N211   N     0.50000   0.65760   0.26550   0.01267  Uiso   1.00
N212   N     0.50000   0.65760   0.73450   0.01267  Uiso   1.00
N213   N     0.34240   0.73450   0.50000   0.01267  Uiso   1.00
N214   N     0.34240   0.26550   0.50000   0.01267  Uiso   1.00
N215   N     0.65760   0.73450   0.50000   0.01267  Uiso   1.00
N216   N     0.65760   0.26550   0.50000   0.01267  Uiso   1.00
N217   N     0.55163   0.25000   0.94837   0.01267  Uiso   1.00
N218   N     0.44837   0.75000   0.94837   0.01267  Uiso   1.00
N219   N     0.44837   0.25000   0.05163   0.01267  Uiso   1.00
N220   N     0.55163   0.75000   0.05163   0.01267  Uiso   1.00
N221   N     0.94837   0.55163   0.25000   0.01267  Uiso   1.00
N222   N     0.94837   0.44837   0.75000   0.01267  Uiso   1.00
N223   N     0.05163   0.44837   0.25000   0.01267  Uiso   1.00
N224   N     0.05163   0.55163   0.75000   0.01267  Uiso   1.00
N225   N     0.25000   0.94837   0.55163   0.01267  Uiso   1.00
N226   N     0.75000   0.94837   0.44837   0.01267  Uiso   1.00
N227   N     0.25000   0.05163   0.44837   0.01267  Uiso   1.00
N228   N     0.75000   0.05163   0.55163   0.01267  Uiso   1.00
N229   N     0.44837   0.75000   0.05163   0.01267  Uiso   1.00
N230   N     0.55163   0.25000   0.05163   0.01267  Uiso   1.00
N231   N     0.55163   0.75000   0.94837   0.01267  Uiso   1.00
N232   N     0.44837   0.25000   0.94837   0.01267  Uiso   1.00
N233   N     0.05163   0.44837   0.75000   0.01267  Uiso   1.00
N234   N     0.05163   0.55163   0.25000   0.01267  Uiso   1.00
N235   N     0.94837   0.55163   0.75000   0.01267  Uiso   1.00
N236   N     0.94837   0.44837   0.25000   0.01267  Uiso   1.00
N237   N     0.75000   0.05163   0.44837   0.01267  Uiso   1.00
N238   N     0.25000   0.05163   0.55163   0.01267  Uiso   1.00
N239   N     0.75000   0.94837   0.55163   0.01267  Uiso   1.00
N240   N     0.25000   0.94837   0.44837   0.01267  Uiso   1.00
O1     O     0.62520   0.08370   1.00000   0.01267  Uiso   1.00
O2     O     0.37480   0.91630   0.00000   0.01267  Uiso   1.00
O3     O     0.37480   0.08370   0.00000   0.01267  Uiso   1.00
O4     O     0.62520   0.91630   0.00000   0.01267  Uiso   1.00
O5     O     0.00000   0.62520   0.08370   0.01267  Uiso   1.00
O6     O     0.00000   0.37480   0.91630   0.01267  Uiso   1.00
O7     O     0.00000   0.37480   0.08370   0.01267  Uiso   1.00
O8     O     0.00000   0.62520   0.91630   0.01267  Uiso   1.00
O9     O     0.08370   0.00000   0.62520   0.01267  Uiso   1.00
O10    O     0.91630   0.00000   0.37480   0.01267  Uiso   1.00
O11    O     0.08370   0.00000   0.37480   0.01267  Uiso   1.00
O12    O     0.91630   0.00000   0.62520   0.01267  Uiso   1.00
O13    O     0.58370   0.12520   0.50000   0.01267  Uiso   1.00
O14    O     0.41630   0.87480   0.50000   0.01267  Uiso   1.00
O15    O     0.58370   0.87480   0.50000   0.01267  Uiso   1.00
O16    O     0.41630   0.12520   0.50000   0.01267  Uiso   1.00
O17    O     0.12520   0.50000   0.41630   0.01267  Uiso   1.00
O18    O     0.87480   0.50000   0.58370   0.01267  Uiso   1.00
O19    O     0.87480   0.50000   0.41630   0.01267  Uiso   1.00
O20    O     0.12520   0.50000   0.58370   0.01267  Uiso   1.00
O21    O     0.50000   0.58370   0.87480   0.01267  Uiso   1.00
O22    O     0.50000   0.41630   0.12520   0.01267  Uiso   1.00
O23    O     0.50000   0.58370   0.12520   0.01267  Uiso   1.00
O24    O     0.50000   0.41630   0.87480   0.01267  Uiso   1.00
