data_JACQUA_charged
_audit_creation_date              2014-07-02
_audit_creation_method            'Materials Studio'
_symmetry_space_group_name_H-M    'P1'
_symmetry_Int_Tables_number       1
_symmetry_cell_setting            triclinic
loop_
_symmetry_equiv_pos_as_xyz
  x,y,z
_cell_length_a                    18.6731
_cell_length_b                    18.6731
_cell_length_c                    20.3091
_cell_angle_alpha                 117.3690
_cell_angle_beta                  117.3690
_cell_angle_gamma                 90.0001
loop_
_atom_site_label
_atom_site_type_symbol
_atom_site_fract_x
_atom_site_fract_y
_atom_site_fract_z
_atom_site_U_iso_or_equiv
_atom_site_adp_type
_atom_site_occupancy
Cd1    Cd    0.86027   0.61027   0.22054   0.01267  Uiso   1.00
Cd2    Cd    0.61027   0.86027   0.72054   0.01267  Uiso   1.00
Cd3    Cd    0.13973   0.38973   0.77946   0.01267  Uiso   1.00
Cd4    Cd    0.38973   0.13973   0.27946   0.01267  Uiso   1.00
H1     H     0.08680   0.71600   0.24140   0.01267  Uiso   1.00
H2     H     0.22720   0.76970   0.35320   0.01267  Uiso   1.00
H3     H     0.19000   0.81530   0.43280   0.01267  Uiso   1.00
H4     H     0.04950   0.56370   0.32080   0.01267  Uiso   1.00
H5     H     0.33440   0.62430   0.45900   0.01267  Uiso   1.00
H6     H     0.47300   0.68490   0.57520   0.01267  Uiso   1.00
H7     H     0.44150   0.71130   0.62700   0.01267  Uiso   1.00
H8     H     0.30300   0.85520   0.51100   0.01267  Uiso   1.00
H9     H     0.97020   0.41650   0.34540   0.01267  Uiso   1.00
H10    H     0.65460   0.52540   0.24140   0.01267  Uiso   1.00
H11    H     0.62600   0.58350   0.35320   0.01267  Uiso   1.00
H12    H     0.74280   0.61750   0.43280   0.01267  Uiso   1.00
H13    H     0.77130   0.75710   0.32080   0.01267  Uiso   1.00
H14    H     0.62460   0.83470   0.45900   0.01267  Uiso   1.00
H15    H     0.60220   0.89030   0.57520   0.01267  Uiso   1.00
H16    H     0.68550   0.91570   0.62700   0.01267  Uiso   1.00
H17    H     0.70800   0.65580   0.51100   0.01267  Uiso   1.00
H18    H     0.87520   0.92890   0.34540   0.01267  Uiso   1.00
H19    H     0.71600   0.65460   0.74140   0.01267  Uiso   1.00
H20    H     0.76970   0.62600   0.85320   0.01267  Uiso   1.00
H21    H     0.81530   0.74280   0.93280   0.01267  Uiso   1.00
H22    H     0.56370   0.77130   0.82080   0.01267  Uiso   1.00
H23    H     0.62430   0.62460   0.95900   0.01267  Uiso   1.00
H24    H     0.68490   0.60220   0.07520   0.01267  Uiso   1.00
H25    H     0.71130   0.68550   0.12700   0.01267  Uiso   1.00
H26    H     0.85520   0.70800   0.01100   0.01267  Uiso   1.00
H27    H     0.41650   0.87520   0.84540   0.01267  Uiso   1.00
H28    H     0.52540   0.08680   0.74140   0.01267  Uiso   1.00
H29    H     0.58350   0.22720   0.85320   0.01267  Uiso   1.00
H30    H     0.61750   0.19000   0.93280   0.01267  Uiso   1.00
H31    H     0.75710   0.04950   0.82080   0.01267  Uiso   1.00
H32    H     0.83470   0.33440   0.95900   0.01267  Uiso   1.00
H33    H     0.89030   0.47300   0.07520   0.01267  Uiso   1.00
H34    H     0.91570   0.44150   0.12700   0.01267  Uiso   1.00
H35    H     0.65580   0.30300   0.01100   0.01267  Uiso   1.00
H36    H     0.92890   0.97020   0.84540   0.01267  Uiso   1.00
H37    H     0.34540   0.28400   0.75860   0.01267  Uiso   1.00
H38    H     0.37400   0.23030   0.64680   0.01267  Uiso   1.00
H39    H     0.25720   0.18470   0.56720   0.01267  Uiso   1.00
H40    H     0.22870   0.43630   0.67920   0.01267  Uiso   1.00
H41    H     0.37540   0.37570   0.54100   0.01267  Uiso   1.00
H42    H     0.39780   0.31510   0.42480   0.01267  Uiso   1.00
H43    H     0.31450   0.28870   0.37300   0.01267  Uiso   1.00
H44    H     0.29200   0.14480   0.48900   0.01267  Uiso   1.00
H45    H     0.12480   0.58350   0.65460   0.01267  Uiso   1.00
H46    H     0.91320   0.47460   0.75860   0.01267  Uiso   1.00
H47    H     0.77280   0.41650   0.64680   0.01267  Uiso   1.00
H48    H     0.81000   0.38250   0.56720   0.01267  Uiso   1.00
H49    H     0.95050   0.24290   0.67920   0.01267  Uiso   1.00
H50    H     0.66560   0.16530   0.54100   0.01267  Uiso   1.00
H51    H     0.52700   0.10970   0.42480   0.01267  Uiso   1.00
H52    H     0.55850   0.08430   0.37300   0.01267  Uiso   1.00
H53    H     0.69700   0.34420   0.48900   0.01267  Uiso   1.00
H54    H     0.02980   0.07110   0.65460   0.01267  Uiso   1.00
H55    H     0.47460   0.34540   0.25860   0.01267  Uiso   1.00
H56    H     0.41650   0.37400   0.14680   0.01267  Uiso   1.00
H57    H     0.38250   0.25720   0.06720   0.01267  Uiso   1.00
H58    H     0.24290   0.22870   0.17920   0.01267  Uiso   1.00
H59    H     0.16530   0.37540   0.04100   0.01267  Uiso   1.00
H60    H     0.10970   0.39780   0.92480   0.01267  Uiso   1.00
H61    H     0.08430   0.31450   0.87300   0.01267  Uiso   1.00
H62    H     0.34420   0.29200   0.98900   0.01267  Uiso   1.00
H63    H     0.07110   0.12480   0.15460   0.01267  Uiso   1.00
H64    H     0.28400   0.91320   0.25860   0.01267  Uiso   1.00
H65    H     0.23030   0.77280   0.14680   0.01267  Uiso   1.00
H66    H     0.18470   0.81000   0.06720   0.01267  Uiso   1.00
H67    H     0.43630   0.95050   0.17920   0.01267  Uiso   1.00
H68    H     0.37570   0.66560   0.04100   0.01267  Uiso   1.00
H69    H     0.31510   0.52700   0.92480   0.01267  Uiso   1.00
H70    H     0.28870   0.55850   0.87300   0.01267  Uiso   1.00
H71    H     0.14480   0.69700   0.98900   0.01267  Uiso   1.00
H72    H     0.58350   0.02980   0.15460   0.01267  Uiso   1.00
H73    H     0.91320   0.28400   0.75860   0.01267  Uiso   1.00
H74    H     0.77280   0.23030   0.64680   0.01267  Uiso   1.00
H75    H     0.81000   0.18470   0.56720   0.01267  Uiso   1.00
H76    H     0.95050   0.43630   0.67920   0.01267  Uiso   1.00
H77    H     0.66560   0.37570   0.54100   0.01267  Uiso   1.00
H78    H     0.52700   0.31510   0.42480   0.01267  Uiso   1.00
H79    H     0.55850   0.28870   0.37300   0.01267  Uiso   1.00
H80    H     0.69700   0.14480   0.48900   0.01267  Uiso   1.00
H81    H     0.02980   0.58350   0.65460   0.01267  Uiso   1.00
H82    H     0.34540   0.47460   0.75860   0.01267  Uiso   1.00
H83    H     0.37400   0.41650   0.64680   0.01267  Uiso   1.00
H84    H     0.25720   0.38250   0.56720   0.01267  Uiso   1.00
H85    H     0.22870   0.24290   0.67920   0.01267  Uiso   1.00
H86    H     0.37540   0.16530   0.54100   0.01267  Uiso   1.00
H87    H     0.39780   0.10970   0.42480   0.01267  Uiso   1.00
H88    H     0.31450   0.08430   0.37300   0.01267  Uiso   1.00
H89    H     0.29200   0.34420   0.48900   0.01267  Uiso   1.00
H90    H     0.12480   0.07110   0.65460   0.01267  Uiso   1.00
H91    H     0.28400   0.34540   0.25860   0.01267  Uiso   1.00
H92    H     0.23030   0.37400   0.14680   0.01267  Uiso   1.00
H93    H     0.18470   0.25720   0.06720   0.01267  Uiso   1.00
H94    H     0.43630   0.22870   0.17920   0.01267  Uiso   1.00
H95    H     0.37570   0.37540   0.04100   0.01267  Uiso   1.00
H96    H     0.31510   0.39780   0.92480   0.01267  Uiso   1.00
H97    H     0.28870   0.31450   0.87300   0.01267  Uiso   1.00
H98    H     0.14480   0.29200   0.98900   0.01267  Uiso   1.00
H99    H     0.58350   0.12480   0.15460   0.01267  Uiso   1.00
H100   H     0.47460   0.91320   0.25860   0.01267  Uiso   1.00
H101   H     0.41650   0.77280   0.14680   0.01267  Uiso   1.00
H102   H     0.38250   0.81000   0.06720   0.01267  Uiso   1.00
H103   H     0.24290   0.95050   0.17920   0.01267  Uiso   1.00
H104   H     0.16530   0.66560   0.04100   0.01267  Uiso   1.00
H105   H     0.10970   0.52700   0.92480   0.01267  Uiso   1.00
H106   H     0.08430   0.55850   0.87300   0.01267  Uiso   1.00
H107   H     0.34420   0.69700   0.98900   0.01267  Uiso   1.00
H108   H     0.07110   0.02980   0.15460   0.01267  Uiso   1.00
H109   H     0.65460   0.71600   0.24140   0.01267  Uiso   1.00
H110   H     0.62600   0.76970   0.35320   0.01267  Uiso   1.00
H111   H     0.74280   0.81530   0.43280   0.01267  Uiso   1.00
H112   H     0.77130   0.56370   0.32080   0.01267  Uiso   1.00
H113   H     0.62460   0.62430   0.45900   0.01267  Uiso   1.00
H114   H     0.60220   0.68490   0.57520   0.01267  Uiso   1.00
H115   H     0.68550   0.71130   0.62700   0.01267  Uiso   1.00
H116   H     0.70800   0.85520   0.51100   0.01267  Uiso   1.00
H117   H     0.87520   0.41650   0.34540   0.01267  Uiso   1.00
H118   H     0.08680   0.52540   0.24140   0.01267  Uiso   1.00
H119   H     0.22720   0.58350   0.35320   0.01267  Uiso   1.00
H120   H     0.19000   0.61750   0.43280   0.01267  Uiso   1.00
H121   H     0.04950   0.75710   0.32080   0.01267  Uiso   1.00
H122   H     0.33440   0.83470   0.45900   0.01267  Uiso   1.00
H123   H     0.47300   0.89030   0.57520   0.01267  Uiso   1.00
H124   H     0.44150   0.91570   0.62700   0.01267  Uiso   1.00
H125   H     0.30300   0.65580   0.51100   0.01267  Uiso   1.00
H126   H     0.97020   0.92890   0.34540   0.01267  Uiso   1.00
H127   H     0.52540   0.65460   0.74140   0.01267  Uiso   1.00
H128   H     0.58350   0.62600   0.85320   0.01267  Uiso   1.00
H129   H     0.61750   0.74280   0.93280   0.01267  Uiso   1.00
H130   H     0.75710   0.77130   0.82080   0.01267  Uiso   1.00
H131   H     0.83470   0.62460   0.95900   0.01267  Uiso   1.00
H132   H     0.89030   0.60220   0.07520   0.01267  Uiso   1.00
H133   H     0.91570   0.68550   0.12700   0.01267  Uiso   1.00
H134   H     0.65580   0.70800   0.01100   0.01267  Uiso   1.00
H135   H     0.92890   0.87520   0.84540   0.01267  Uiso   1.00
H136   H     0.71600   0.08680   0.74140   0.01267  Uiso   1.00
H137   H     0.76970   0.22720   0.85320   0.01267  Uiso   1.00
H138   H     0.81530   0.19000   0.93280   0.01267  Uiso   1.00
H139   H     0.56370   0.04950   0.82080   0.01267  Uiso   1.00
H140   H     0.62430   0.33440   0.95900   0.01267  Uiso   1.00
H141   H     0.68490   0.47300   0.07520   0.01267  Uiso   1.00
H142   H     0.71130   0.44150   0.12700   0.01267  Uiso   1.00
H143   H     0.85520   0.30300   0.01100   0.01267  Uiso   1.00
H144   H     0.41650   0.97020   0.84540   0.01267  Uiso   1.00
C1     C     0.10770   0.69600   0.28020   0.01267  Uiso   1.00
C2     C     0.19110   0.72790   0.34660   0.01267  Uiso   1.00
C3     C     0.16900   0.75640   0.39380   0.01267  Uiso   1.00
C4     C     0.08560   0.60560   0.32740   0.01267  Uiso   1.00
C5     C     0.30560   0.73400   0.47400   0.01267  Uiso   1.00
C6     C     0.35620   0.68350   0.49320   0.01267  Uiso   1.00
C7     C     0.43850   0.71950   0.56220   0.01267  Uiso   1.00
C8     C     0.41980   0.73640   0.59300   0.01267  Uiso   1.00
C9     C     0.33750   0.82060   0.52400   0.01267  Uiso   1.00
C10    C     0.95410   0.57520   0.52100   0.01267  Uiso   1.00
C11    C     0.96840   0.51950   0.44240   0.01267  Uiso   1.00
C12    C     0.94750   0.59510   0.46380   0.01267  Uiso   1.00
C13    C     0.91420   0.61980   0.40320   0.01267  Uiso   1.00
C14    C     0.92260   0.49280   0.29940   0.01267  Uiso   1.00
C15    C     0.95590   0.46820   0.36000   0.01267  Uiso   1.00
C16    C     0.67250   0.58420   0.28020   0.01267  Uiso   1.00
C17    C     0.65550   0.61870   0.34660   0.01267  Uiso   1.00
C18    C     0.72480   0.63740   0.39380   0.01267  Uiso   1.00
C19    C     0.74180   0.72180   0.32740   0.01267  Uiso   1.00
C20    C     0.66840   0.74000   0.47400   0.01267  Uiso   1.00
C21    C     0.63700   0.80970   0.49320   0.01267  Uiso   1.00
C22    C     0.62370   0.84270   0.56220   0.01267  Uiso   1.00
C23    C     0.67320   0.85660   0.59300   0.01267  Uiso   1.00
C24    C     0.68650   0.70340   0.52400   0.01267  Uiso   1.00
C25    C     0.06690   0.94580   0.52100   0.01267  Uiso   1.00
C26    C     0.97400   0.92290   0.44240   0.01267  Uiso   1.00
C27    C     0.01630   0.86870   0.46380   0.01267  Uiso   1.00
C28    C     0.98900   0.78340   0.40320   0.01267  Uiso   1.00
C29    C     0.87680   0.80660   0.29940   0.01267  Uiso   1.00
C30    C     0.90410   0.89180   0.36000   0.01267  Uiso   1.00
C31    C     0.69600   0.67250   0.78020   0.01267  Uiso   1.00
C32    C     0.72790   0.65550   0.84660   0.01267  Uiso   1.00
C33    C     0.75640   0.72480   0.89380   0.01267  Uiso   1.00
C34    C     0.60560   0.74180   0.82740   0.01267  Uiso   1.00
C35    C     0.73400   0.66840   0.97400   0.01267  Uiso   1.00
C36    C     0.68350   0.63700   0.99320   0.01267  Uiso   1.00
C37    C     0.71950   0.62370   0.06220   0.01267  Uiso   1.00
C38    C     0.73640   0.67320   0.09300   0.01267  Uiso   1.00
C39    C     0.82060   0.68650   0.02400   0.01267  Uiso   1.00
C40    C     0.57520   0.06690   0.02100   0.01267  Uiso   1.00
C41    C     0.51950   0.97400   0.94240   0.01267  Uiso   1.00
C42    C     0.59510   0.01630   0.96380   0.01267  Uiso   1.00
C43    C     0.61980   0.98900   0.90320   0.01267  Uiso   1.00
C44    C     0.49280   0.87680   0.79940   0.01267  Uiso   1.00
C45    C     0.46820   0.90410   0.86000   0.01267  Uiso   1.00
C46    C     0.58420   0.10770   0.78020   0.01267  Uiso   1.00
C47    C     0.61870   0.19110   0.84660   0.01267  Uiso   1.00
C48    C     0.63740   0.16900   0.89380   0.01267  Uiso   1.00
C49    C     0.72180   0.08560   0.82740   0.01267  Uiso   1.00
C50    C     0.74000   0.30560   0.97400   0.01267  Uiso   1.00
C51    C     0.80970   0.35620   0.99320   0.01267  Uiso   1.00
C52    C     0.84270   0.43850   0.06220   0.01267  Uiso   1.00
C53    C     0.85660   0.41980   0.09300   0.01267  Uiso   1.00
C54    C     0.70340   0.33750   0.02400   0.01267  Uiso   1.00
C55    C     0.94580   0.95410   0.02100   0.01267  Uiso   1.00
C56    C     0.92290   0.96840   0.94240   0.01267  Uiso   1.00
C57    C     0.86870   0.94750   0.96380   0.01267  Uiso   1.00
C58    C     0.78340   0.91420   0.90320   0.01267  Uiso   1.00
C59    C     0.80660   0.92260   0.79940   0.01267  Uiso   1.00
C60    C     0.89180   0.95590   0.86000   0.01267  Uiso   1.00
C61    C     0.32750   0.30400   0.71980   0.01267  Uiso   1.00
C62    C     0.34450   0.27210   0.65340   0.01267  Uiso   1.00
C63    C     0.27520   0.24360   0.60620   0.01267  Uiso   1.00
C64    C     0.25820   0.39440   0.67260   0.01267  Uiso   1.00
C65    C     0.33160   0.26600   0.52600   0.01267  Uiso   1.00
C66    C     0.36300   0.31650   0.50680   0.01267  Uiso   1.00
C67    C     0.37630   0.28050   0.43780   0.01267  Uiso   1.00
C68    C     0.32680   0.26360   0.40700   0.01267  Uiso   1.00
C69    C     0.31350   0.17940   0.47600   0.01267  Uiso   1.00
C70    C     0.93310   0.42480   0.47900   0.01267  Uiso   1.00
C71    C     0.02600   0.48050   0.55760   0.01267  Uiso   1.00
C72    C     0.98370   0.40490   0.53620   0.01267  Uiso   1.00
C73    C     0.01100   0.38020   0.59680   0.01267  Uiso   1.00
C74    C     0.12320   0.50720   0.70060   0.01267  Uiso   1.00
C75    C     0.09590   0.53180   0.64000   0.01267  Uiso   1.00
C76    C     0.89230   0.41580   0.71980   0.01267  Uiso   1.00
C77    C     0.80890   0.38130   0.65340   0.01267  Uiso   1.00
C78    C     0.83100   0.36260   0.60620   0.01267  Uiso   1.00
C79    C     0.91440   0.27820   0.67260   0.01267  Uiso   1.00
C80    C     0.69440   0.26000   0.52600   0.01267  Uiso   1.00
C81    C     0.64380   0.19030   0.50680   0.01267  Uiso   1.00
C82    C     0.56150   0.15730   0.43780   0.01267  Uiso   1.00
C83    C     0.58020   0.14340   0.40700   0.01267  Uiso   1.00
C84    C     0.66250   0.29660   0.47600   0.01267  Uiso   1.00
C85    C     0.04590   0.05420   0.47900   0.01267  Uiso   1.00
C86    C     0.03160   0.07710   0.55760   0.01267  Uiso   1.00
C87    C     0.05250   0.13130   0.53620   0.01267  Uiso   1.00
C88    C     0.08580   0.21660   0.59680   0.01267  Uiso   1.00
C89    C     0.07740   0.19340   0.70060   0.01267  Uiso   1.00
C90    C     0.04410   0.10820   0.64000   0.01267  Uiso   1.00
C91    C     0.41580   0.32750   0.21980   0.01267  Uiso   1.00
C92    C     0.38130   0.34450   0.15340   0.01267  Uiso   1.00
C93    C     0.36260   0.27520   0.10620   0.01267  Uiso   1.00
C94    C     0.27820   0.25820   0.17260   0.01267  Uiso   1.00
C95    C     0.26000   0.33160   0.02600   0.01267  Uiso   1.00
C96    C     0.19030   0.36300   0.00680   0.01267  Uiso   1.00
C97    C     0.15730   0.37630   0.93780   0.01267  Uiso   1.00
C98    C     0.14340   0.32680   0.90700   0.01267  Uiso   1.00
C99    C     0.29660   0.31350   0.97600   0.01267  Uiso   1.00
C100   C     0.05420   0.93310   0.97900   0.01267  Uiso   1.00
C101   C     0.07710   0.02600   0.05760   0.01267  Uiso   1.00
C102   C     0.13130   0.98370   0.03620   0.01267  Uiso   1.00
C103   C     0.21660   0.01100   0.09680   0.01267  Uiso   1.00
C104   C     0.19340   0.12320   0.20060   0.01267  Uiso   1.00
C105   C     0.10820   0.09590   0.14000   0.01267  Uiso   1.00
C106   C     0.30400   0.89230   0.21980   0.01267  Uiso   1.00
C107   C     0.27210   0.80890   0.15340   0.01267  Uiso   1.00
C108   C     0.24360   0.83100   0.10620   0.01267  Uiso   1.00
C109   C     0.39440   0.91440   0.17260   0.01267  Uiso   1.00
C110   C     0.26600   0.69440   0.02600   0.01267  Uiso   1.00
C111   C     0.31650   0.64380   0.00680   0.01267  Uiso   1.00
C112   C     0.28050   0.56150   0.93780   0.01267  Uiso   1.00
C113   C     0.26360   0.58020   0.90700   0.01267  Uiso   1.00
C114   C     0.17940   0.66250   0.97600   0.01267  Uiso   1.00
C115   C     0.42480   0.04590   0.97900   0.01267  Uiso   1.00
C116   C     0.48050   0.03160   0.05760   0.01267  Uiso   1.00
C117   C     0.40490   0.05250   0.03620   0.01267  Uiso   1.00
C118   C     0.38020   0.08580   0.09680   0.01267  Uiso   1.00
C119   C     0.50720   0.07740   0.20060   0.01267  Uiso   1.00
C120   C     0.53180   0.04410   0.14000   0.01267  Uiso   1.00
C121   C     0.89230   0.30400   0.71980   0.01267  Uiso   1.00
C122   C     0.80890   0.27210   0.65340   0.01267  Uiso   1.00
C123   C     0.83100   0.24360   0.60620   0.01267  Uiso   1.00
C124   C     0.91440   0.39440   0.67260   0.01267  Uiso   1.00
C125   C     0.69440   0.26600   0.52600   0.01267  Uiso   1.00
C126   C     0.64380   0.31650   0.50680   0.01267  Uiso   1.00
C127   C     0.56150   0.28050   0.43780   0.01267  Uiso   1.00
C128   C     0.58020   0.26360   0.40700   0.01267  Uiso   1.00
C129   C     0.66250   0.17940   0.47600   0.01267  Uiso   1.00
C130   C     0.04590   0.42480   0.47900   0.01267  Uiso   1.00
C131   C     0.03160   0.48050   0.55760   0.01267  Uiso   1.00
C132   C     0.05250   0.40490   0.53620   0.01267  Uiso   1.00
C133   C     0.08580   0.38020   0.59680   0.01267  Uiso   1.00
C134   C     0.07740   0.50720   0.70060   0.01267  Uiso   1.00
C135   C     0.04410   0.53180   0.64000   0.01267  Uiso   1.00
C136   C     0.32750   0.41580   0.71980   0.01267  Uiso   1.00
C137   C     0.34450   0.38130   0.65340   0.01267  Uiso   1.00
C138   C     0.27520   0.36260   0.60620   0.01267  Uiso   1.00
C139   C     0.25820   0.27820   0.67260   0.01267  Uiso   1.00
C140   C     0.33160   0.26000   0.52600   0.01267  Uiso   1.00
C141   C     0.36300   0.19030   0.50680   0.01267  Uiso   1.00
C142   C     0.37630   0.15730   0.43780   0.01267  Uiso   1.00
C143   C     0.32680   0.14340   0.40700   0.01267  Uiso   1.00
C144   C     0.31350   0.29660   0.47600   0.01267  Uiso   1.00
C145   C     0.93310   0.05420   0.47900   0.01267  Uiso   1.00
C146   C     0.02600   0.07710   0.55760   0.01267  Uiso   1.00
C147   C     0.98370   0.13130   0.53620   0.01267  Uiso   1.00
C148   C     0.01100   0.21660   0.59680   0.01267  Uiso   1.00
C149   C     0.12320   0.19340   0.70060   0.01267  Uiso   1.00
C150   C     0.09590   0.10820   0.64000   0.01267  Uiso   1.00
C151   C     0.30400   0.32750   0.21980   0.01267  Uiso   1.00
C152   C     0.27210   0.34450   0.15340   0.01267  Uiso   1.00
C153   C     0.24360   0.27520   0.10620   0.01267  Uiso   1.00
C154   C     0.39440   0.25820   0.17260   0.01267  Uiso   1.00
C155   C     0.26600   0.33160   0.02600   0.01267  Uiso   1.00
C156   C     0.31650   0.36300   0.00680   0.01267  Uiso   1.00
C157   C     0.28050   0.37630   0.93780   0.01267  Uiso   1.00
C158   C     0.26360   0.32680   0.90700   0.01267  Uiso   1.00
C159   C     0.17940   0.31350   0.97600   0.01267  Uiso   1.00
C160   C     0.42480   0.93310   0.97900   0.01267  Uiso   1.00
C161   C     0.48050   0.02600   0.05760   0.01267  Uiso   1.00
C162   C     0.40490   0.98370   0.03620   0.01267  Uiso   1.00
C163   C     0.38020   0.01100   0.09680   0.01267  Uiso   1.00
C164   C     0.50720   0.12320   0.20060   0.01267  Uiso   1.00
C165   C     0.53180   0.09590   0.14000   0.01267  Uiso   1.00
C166   C     0.41580   0.89230   0.21980   0.01267  Uiso   1.00
C167   C     0.38130   0.80890   0.15340   0.01267  Uiso   1.00
C168   C     0.36260   0.83100   0.10620   0.01267  Uiso   1.00
C169   C     0.27820   0.91440   0.17260   0.01267  Uiso   1.00
C170   C     0.26000   0.69440   0.02600   0.01267  Uiso   1.00
C171   C     0.19030   0.64380   0.00680   0.01267  Uiso   1.00
C172   C     0.15730   0.56150   0.93780   0.01267  Uiso   1.00
C173   C     0.14340   0.58020   0.90700   0.01267  Uiso   1.00
C174   C     0.29660   0.66250   0.97600   0.01267  Uiso   1.00
C175   C     0.05420   0.04590   0.97900   0.01267  Uiso   1.00
C176   C     0.07710   0.03160   0.05760   0.01267  Uiso   1.00
C177   C     0.13130   0.05250   0.03620   0.01267  Uiso   1.00
C178   C     0.21660   0.08580   0.09680   0.01267  Uiso   1.00
C179   C     0.19340   0.07740   0.20060   0.01267  Uiso   1.00
C180   C     0.10820   0.04410   0.14000   0.01267  Uiso   1.00
C181   C     0.67250   0.69600   0.28020   0.01267  Uiso   1.00
C182   C     0.65550   0.72790   0.34660   0.01267  Uiso   1.00
C183   C     0.72480   0.75640   0.39380   0.01267  Uiso   1.00
C184   C     0.74180   0.60560   0.32740   0.01267  Uiso   1.00
C185   C     0.66840   0.73400   0.47400   0.01267  Uiso   1.00
C186   C     0.63700   0.68350   0.49320   0.01267  Uiso   1.00
C187   C     0.62370   0.71950   0.56220   0.01267  Uiso   1.00
C188   C     0.67320   0.73640   0.59300   0.01267  Uiso   1.00
C189   C     0.68650   0.82060   0.52400   0.01267  Uiso   1.00
C190   C     0.06690   0.57520   0.52100   0.01267  Uiso   1.00
C191   C     0.97400   0.51950   0.44240   0.01267  Uiso   1.00
C192   C     0.01630   0.59510   0.46380   0.01267  Uiso   1.00
C193   C     0.98900   0.61980   0.40320   0.01267  Uiso   1.00
C194   C     0.87680   0.49280   0.29940   0.01267  Uiso   1.00
C195   C     0.90410   0.46820   0.36000   0.01267  Uiso   1.00
C196   C     0.10770   0.58420   0.28020   0.01267  Uiso   1.00
C197   C     0.19110   0.61870   0.34660   0.01267  Uiso   1.00
C198   C     0.16900   0.63740   0.39380   0.01267  Uiso   1.00
C199   C     0.08560   0.72180   0.32740   0.01267  Uiso   1.00
C200   C     0.30560   0.74000   0.47400   0.01267  Uiso   1.00
C201   C     0.35620   0.80970   0.49320   0.01267  Uiso   1.00
C202   C     0.43850   0.84270   0.56220   0.01267  Uiso   1.00
C203   C     0.41980   0.85660   0.59300   0.01267  Uiso   1.00
C204   C     0.33750   0.70340   0.52400   0.01267  Uiso   1.00
C205   C     0.95410   0.94580   0.52100   0.01267  Uiso   1.00
C206   C     0.96840   0.92290   0.44240   0.01267  Uiso   1.00
C207   C     0.94750   0.86870   0.46380   0.01267  Uiso   1.00
C208   C     0.91420   0.78340   0.40320   0.01267  Uiso   1.00
C209   C     0.92260   0.80660   0.29940   0.01267  Uiso   1.00
C210   C     0.95590   0.89180   0.36000   0.01267  Uiso   1.00
C211   C     0.58420   0.67250   0.78020   0.01267  Uiso   1.00
C212   C     0.61870   0.65550   0.84660   0.01267  Uiso   1.00
C213   C     0.63740   0.72480   0.89380   0.01267  Uiso   1.00
C214   C     0.72180   0.74180   0.82740   0.01267  Uiso   1.00
C215   C     0.74000   0.66840   0.97400   0.01267  Uiso   1.00
C216   C     0.80970   0.63700   0.99320   0.01267  Uiso   1.00
C217   C     0.84270   0.62370   0.06220   0.01267  Uiso   1.00
C218   C     0.85660   0.67320   0.09300   0.01267  Uiso   1.00
C219   C     0.70340   0.68650   0.02400   0.01267  Uiso   1.00
C220   C     0.94580   0.06690   0.02100   0.01267  Uiso   1.00
C221   C     0.92290   0.97400   0.94240   0.01267  Uiso   1.00
C222   C     0.86870   0.01630   0.96380   0.01267  Uiso   1.00
C223   C     0.78340   0.98900   0.90320   0.01267  Uiso   1.00
C224   C     0.80660   0.87680   0.79940   0.01267  Uiso   1.00
C225   C     0.89180   0.90410   0.86000   0.01267  Uiso   1.00
C226   C     0.69600   0.10770   0.78020   0.01267  Uiso   1.00
C227   C     0.72790   0.19110   0.84660   0.01267  Uiso   1.00
C228   C     0.75640   0.16900   0.89380   0.01267  Uiso   1.00
C229   C     0.60560   0.08560   0.82740   0.01267  Uiso   1.00
C230   C     0.73400   0.30560   0.97400   0.01267  Uiso   1.00
C231   C     0.68350   0.35620   0.99320   0.01267  Uiso   1.00
C232   C     0.71950   0.43850   0.06220   0.01267  Uiso   1.00
C233   C     0.73640   0.41980   0.09300   0.01267  Uiso   1.00
C234   C     0.82060   0.33750   0.02400   0.01267  Uiso   1.00
C235   C     0.57520   0.95410   0.02100   0.01267  Uiso   1.00
C236   C     0.51950   0.96840   0.94240   0.01267  Uiso   1.00
C237   C     0.59510   0.94750   0.96380   0.01267  Uiso   1.00
C238   C     0.61980   0.91420   0.90320   0.01267  Uiso   1.00
C239   C     0.49280   0.92260   0.79940   0.01267  Uiso   1.00
C240   C     0.46820   0.95590   0.86000   0.01267  Uiso   1.00
C241   C     0.05490   0.63530   0.27060   0.01267  Uiso   1.00
C242   C     0.71570   0.63530   0.27060   0.01267  Uiso   1.00
C243   C     0.63530   0.71570   0.77060   0.01267  Uiso   1.00
C244   C     0.63530   0.05490   0.77060   0.01267  Uiso   1.00
C245   C     0.28430   0.36470   0.72940   0.01267  Uiso   1.00
C246   C     0.94510   0.36470   0.72940   0.01267  Uiso   1.00
C247   C     0.36470   0.28430   0.22940   0.01267  Uiso   1.00
C248   C     0.36470   0.94510   0.22940   0.01267  Uiso   1.00
N1     N     0.22190   0.69870   0.40360   0.01267  Uiso   1.00
N2     N     0.99170   0.51040   0.50140   0.01267  Uiso   1.00
N3     N     0.90170   0.56860   0.32100   0.01267  Uiso   1.00
N4     N     0.68170   0.70490   0.40360   0.01267  Uiso   1.00
N5     N     0.00970   0.99100   0.50140   0.01267  Uiso   1.00
N6     N     0.91930   0.75240   0.32100   0.01267  Uiso   1.00
N7     N     0.69870   0.68170   0.90360   0.01267  Uiso   1.00
N8     N     0.51040   0.00970   0.00140   0.01267  Uiso   1.00
N9     N     0.56860   0.91930   0.82100   0.01267  Uiso   1.00
N10    N     0.70490   0.22190   0.90360   0.01267  Uiso   1.00
N11    N     0.99100   0.99170   0.00140   0.01267  Uiso   1.00
N12    N     0.75240   0.90170   0.82100   0.01267  Uiso   1.00
N13    N     0.31830   0.30130   0.59640   0.01267  Uiso   1.00
N14    N     0.99030   0.48960   0.49860   0.01267  Uiso   1.00
N15    N     0.08070   0.43140   0.67900   0.01267  Uiso   1.00
N16    N     0.77810   0.29510   0.59640   0.01267  Uiso   1.00
N17    N     0.00830   0.00900   0.49860   0.01267  Uiso   1.00
N18    N     0.09830   0.24760   0.67900   0.01267  Uiso   1.00
N19    N     0.29510   0.31830   0.09640   0.01267  Uiso   1.00
N20    N     0.00900   0.99030   0.99860   0.01267  Uiso   1.00
N21    N     0.24760   0.08070   0.17900   0.01267  Uiso   1.00
N22    N     0.30130   0.77810   0.09640   0.01267  Uiso   1.00
N23    N     0.48960   0.00830   0.99860   0.01267  Uiso   1.00
N24    N     0.43140   0.09830   0.17900   0.01267  Uiso   1.00
N25    N     0.77810   0.30130   0.59640   0.01267  Uiso   1.00
N26    N     0.00830   0.48960   0.49860   0.01267  Uiso   1.00
N27    N     0.09830   0.43140   0.67900   0.01267  Uiso   1.00
N28    N     0.31830   0.29510   0.59640   0.01267  Uiso   1.00
N29    N     0.99030   0.00900   0.49860   0.01267  Uiso   1.00
N30    N     0.08070   0.24760   0.67900   0.01267  Uiso   1.00
N31    N     0.30130   0.31830   0.09640   0.01267  Uiso   1.00
N32    N     0.48960   0.99030   0.99860   0.01267  Uiso   1.00
N33    N     0.43140   0.08070   0.17900   0.01267  Uiso   1.00
N34    N     0.29510   0.77810   0.09640   0.01267  Uiso   1.00
N35    N     0.00900   0.00830   0.99860   0.01267  Uiso   1.00
N36    N     0.24760   0.09830   0.17900   0.01267  Uiso   1.00
N37    N     0.68170   0.69870   0.40360   0.01267  Uiso   1.00
N38    N     0.00970   0.51040   0.50140   0.01267  Uiso   1.00
N39    N     0.91930   0.56860   0.32100   0.01267  Uiso   1.00
N40    N     0.22190   0.70490   0.40360   0.01267  Uiso   1.00
N41    N     0.99170   0.99100   0.50140   0.01267  Uiso   1.00
N42    N     0.90170   0.75240   0.32100   0.01267  Uiso   1.00
N43    N     0.70490   0.68170   0.90360   0.01267  Uiso   1.00
N44    N     0.99100   0.00970   0.00140   0.01267  Uiso   1.00
N45    N     0.75240   0.91930   0.82100   0.01267  Uiso   1.00
N46    N     0.69870   0.22190   0.90360   0.01267  Uiso   1.00
N47    N     0.51040   0.99170   0.00140   0.01267  Uiso   1.00
N48    N     0.56860   0.90170   0.82100   0.01267  Uiso   1.00
N49    N     0.80600   0.64170   0.11200   0.01267  Uiso   1.00
N50    N     0.80600   0.47030   0.11200   0.01267  Uiso   1.00
N51    N     0.64170   0.80600   0.61200   0.01267  Uiso   1.00
N52    N     0.47030   0.80600   0.61200   0.01267  Uiso   1.00
N53    N     0.19400   0.35830   0.88800   0.01267  Uiso   1.00
N54    N     0.19400   0.52970   0.88800   0.01267  Uiso   1.00
N55    N     0.52970   0.19400   0.38800   0.01267  Uiso   1.00
N56    N     0.35830   0.19400   0.38800   0.01267  Uiso   1.00
O1     O     0.97670   0.60620   0.20920   0.01267  Uiso   1.00
O2     O     0.73250   0.60300   0.20920   0.01267  Uiso   1.00
O3     O     0.60620   0.73250   0.70920   0.01267  Uiso   1.00
O4     O     0.60300   0.97670   0.70920   0.01267  Uiso   1.00
O5     O     0.26750   0.39380   0.79080   0.01267  Uiso   1.00
O6     O     0.02330   0.39700   0.79080   0.01267  Uiso   1.00
O7     O     0.39700   0.26750   0.29080   0.01267  Uiso   1.00
O8     O     0.39380   0.02330   0.29080   0.01267  Uiso   1.00
O9     O     0.02330   0.39380   0.79080   0.01267  Uiso   1.00
O10    O     0.26750   0.39700   0.79080   0.01267  Uiso   1.00
O11    O     0.39380   0.26750   0.29080   0.01267  Uiso   1.00
O12    O     0.39700   0.02330   0.29080   0.01267  Uiso   1.00
O13    O     0.73250   0.60620   0.20920   0.01267  Uiso   1.00
O14    O     0.97670   0.60300   0.20920   0.01267  Uiso   1.00
O15    O     0.60300   0.73250   0.70920   0.01267  Uiso   1.00
O16    O     0.60620   0.97670   0.70920   0.01267  Uiso   1.00
Cl1    Cl    0.19880   0.84690   0.62880   0.01267  Uiso   1.00
Cl2    Cl    0.19880   0.78190   0.62880   0.01267  Uiso   1.00
O17    O     0.19490   0.90350   0.59940   0.01267  Uiso   1.00
O18    O     0.16990   0.76360   0.55740   0.01267  Uiso   1.00
O19    O     0.14520   0.85800   0.66260   0.01267  Uiso   1.00
O20    O     0.28210   0.86190   0.69320   0.01267  Uiso   1.00
O21    O     0.19490   0.69590   0.59940   0.01267  Uiso   1.00
O22    O     0.16990   0.79380   0.55740   0.01267  Uiso   1.00
O23    O     0.14520   0.80460   0.66260   0.01267  Uiso   1.00
O24    O     0.28210   0.83130   0.69320   0.01267  Uiso   1.00
Cl3    Cl    0.21600   0.01540   0.54020   0.01267  Uiso   1.00
Cl4    Cl    0.40510   0.07460   0.62880   0.01267  Uiso   1.00
Cl5    Cl    0.17580   0.98460   0.45980   0.01267  Uiso   1.00
Cl6    Cl    0.27630   0.92540   0.37120   0.01267  Uiso   1.00
O25    O     0.29020   0.02890   0.61560   0.01267  Uiso   1.00
O26    O     0.23220   0.99140   0.47220   0.01267  Uiso   1.00
O27    O     0.19110   0.09080   0.55920   0.01267  Uiso   1.00
O28    O     0.17460   0.97110   0.38440   0.01267  Uiso   1.00
O29    O     0.26000   0.00860   0.52780   0.01267  Uiso   1.00
O30    O     0.13190   0.90920   0.44080   0.01267  Uiso   1.00
Cl7    Cl    0.93000   0.78190   0.62880   0.01267  Uiso   1.00
Cl8    Cl    0.93000   0.84690   0.62880   0.01267  Uiso   1.00
O31    O     0.90450   0.69590   0.59940   0.01267  Uiso   1.00
O32    O     0.88750   0.79380   0.55740   0.01267  Uiso   1.00
O33    O     0.01740   0.80460   0.66260   0.01267  Uiso   1.00
O34    O     0.91110   0.83130   0.69320   0.01267  Uiso   1.00
O35    O     0.90450   0.90350   0.59940   0.01267  Uiso   1.00
O36    O     0.88750   0.76360   0.55740   0.01267  Uiso   1.00
O37    O     0.01740   0.85800   0.66260   0.01267  Uiso   1.00
O38    O     0.91110   0.86190   0.69320   0.01267  Uiso   1.00
Cl9    Cl    0.82420   0.52480   0.54020   0.01267  Uiso   1.00
Cl10   Cl    0.72370   0.55420   0.62880   0.01267  Uiso   1.00
Cl11   Cl    0.78400   0.47520   0.45980   0.01267  Uiso   1.00
Cl12   Cl    0.59490   0.44580   0.37120   0.01267  Uiso   1.00
O39    O     0.82540   0.58670   0.61560   0.01267  Uiso   1.00
O40    O     0.74000   0.48080   0.47220   0.01267  Uiso   1.00
O41    O     0.86810   0.46840   0.55920   0.01267  Uiso   1.00
O42    O     0.70980   0.41330   0.38440   0.01267  Uiso   1.00
O43    O     0.76780   0.51920   0.52780   0.01267  Uiso   1.00
O44    O     0.80890   0.53160   0.44080   0.01267  Uiso   1.00
Cl13   Cl    0.84690   0.93000   0.12880   0.01267  Uiso   1.00
Cl14   Cl    0.78190   0.93000   0.12880   0.01267  Uiso   1.00
O45    O     0.90350   0.90450   0.09940   0.01267  Uiso   1.00
O46    O     0.76360   0.88750   0.05740   0.01267  Uiso   1.00
O47    O     0.85800   0.01740   0.16260   0.01267  Uiso   1.00
O48    O     0.86190   0.91110   0.19320   0.01267  Uiso   1.00
O49    O     0.69590   0.90450   0.09940   0.01267  Uiso   1.00
O50    O     0.79380   0.88750   0.05740   0.01267  Uiso   1.00
O51    O     0.80460   0.01740   0.16260   0.01267  Uiso   1.00
O52    O     0.83130   0.91110   0.19320   0.01267  Uiso   1.00
Cl15   Cl    0.01540   0.82420   0.04020   0.01267  Uiso   1.00
Cl16   Cl    0.07460   0.72370   0.12880   0.01267  Uiso   1.00
Cl17   Cl    0.98460   0.78400   0.95980   0.01267  Uiso   1.00
Cl18   Cl    0.92540   0.59490   0.87120   0.01267  Uiso   1.00
O53    O     0.02890   0.82540   0.11560   0.01267  Uiso   1.00
O54    O     0.99140   0.74000   0.97220   0.01267  Uiso   1.00
O55    O     0.09080   0.86810   0.05920   0.01267  Uiso   1.00
O56    O     0.97110   0.70980   0.88440   0.01267  Uiso   1.00
O57    O     0.00860   0.76780   0.02780   0.01267  Uiso   1.00
O58    O     0.90920   0.80890   0.94080   0.01267  Uiso   1.00
Cl19   Cl    0.78190   0.19880   0.12880   0.01267  Uiso   1.00
Cl20   Cl    0.84690   0.19880   0.12880   0.01267  Uiso   1.00
O59    O     0.69590   0.19490   0.09940   0.01267  Uiso   1.00
O60    O     0.79380   0.16990   0.05740   0.01267  Uiso   1.00
O61    O     0.80460   0.14520   0.16260   0.01267  Uiso   1.00
O62    O     0.83130   0.28210   0.19320   0.01267  Uiso   1.00
O63    O     0.90350   0.19490   0.09940   0.01267  Uiso   1.00
O64    O     0.76360   0.16990   0.05740   0.01267  Uiso   1.00
O65    O     0.85800   0.14520   0.16260   0.01267  Uiso   1.00
O66    O     0.86190   0.28210   0.19320   0.01267  Uiso   1.00
Cl21   Cl    0.52480   0.21600   0.04020   0.01267  Uiso   1.00
Cl22   Cl    0.55420   0.40510   0.12880   0.01267  Uiso   1.00
Cl23   Cl    0.47520   0.17580   0.95980   0.01267  Uiso   1.00
Cl24   Cl    0.44580   0.27630   0.87120   0.01267  Uiso   1.00
O67    O     0.58670   0.29020   0.11560   0.01267  Uiso   1.00
O68    O     0.48080   0.23220   0.97220   0.01267  Uiso   1.00
O69    O     0.46840   0.19110   0.05920   0.01267  Uiso   1.00
O70    O     0.41330   0.17460   0.88440   0.01267  Uiso   1.00
O71    O     0.51920   0.26000   0.02780   0.01267  Uiso   1.00
O72    O     0.53160   0.13190   0.94080   0.01267  Uiso   1.00
Cl25   Cl    0.07000   0.15310   0.37120   0.01267  Uiso   1.00
Cl26   Cl    0.07000   0.21810   0.37120   0.01267  Uiso   1.00
O73    O     0.09550   0.09650   0.40060   0.01267  Uiso   1.00
O74    O     0.11250   0.23640   0.44260   0.01267  Uiso   1.00
O75    O     0.98260   0.14200   0.33740   0.01267  Uiso   1.00
O76    O     0.08890   0.13810   0.30680   0.01267  Uiso   1.00
O77    O     0.09550   0.30410   0.40060   0.01267  Uiso   1.00
O78    O     0.11250   0.20620   0.44260   0.01267  Uiso   1.00
O79    O     0.98260   0.19540   0.33740   0.01267  Uiso   1.00
O80    O     0.08890   0.16870   0.30680   0.01267  Uiso   1.00
Cl27   Cl    0.80120   0.21810   0.37120   0.01267  Uiso   1.00
Cl28   Cl    0.80120   0.15310   0.37120   0.01267  Uiso   1.00
O81    O     0.80510   0.30410   0.40060   0.01267  Uiso   1.00
O82    O     0.83010   0.20620   0.44260   0.01267  Uiso   1.00
O83    O     0.85480   0.19540   0.33740   0.01267  Uiso   1.00
O84    O     0.71790   0.16870   0.30680   0.01267  Uiso   1.00
O85    O     0.80510   0.09650   0.40060   0.01267  Uiso   1.00
O86    O     0.83010   0.23640   0.44260   0.01267  Uiso   1.00
O87    O     0.85480   0.14200   0.33740   0.01267  Uiso   1.00
O88    O     0.71790   0.13810   0.30680   0.01267  Uiso   1.00
Cl29   Cl    0.21810   0.07000   0.87120   0.01267  Uiso   1.00
Cl30   Cl    0.15310   0.07000   0.87120   0.01267  Uiso   1.00
O89    O     0.30410   0.09550   0.90060   0.01267  Uiso   1.00
O90    O     0.20620   0.11250   0.94260   0.01267  Uiso   1.00
O91    O     0.19540   0.98260   0.83740   0.01267  Uiso   1.00
O92    O     0.16870   0.08890   0.80680   0.01267  Uiso   1.00
O93    O     0.09650   0.09550   0.90060   0.01267  Uiso   1.00
O94    O     0.23640   0.11250   0.94260   0.01267  Uiso   1.00
O95    O     0.14200   0.98260   0.83740   0.01267  Uiso   1.00
O96    O     0.13810   0.08890   0.80680   0.01267  Uiso   1.00
Cl31   Cl    0.15310   0.80120   0.87120   0.01267  Uiso   1.00
Cl32   Cl    0.21810   0.80120   0.87120   0.01267  Uiso   1.00
O97    O     0.09650   0.80510   0.90060   0.01267  Uiso   1.00
O98    O     0.23640   0.83010   0.94260   0.01267  Uiso   1.00
O99    O     0.14200   0.85480   0.83740   0.01267  Uiso   1.00
O100   O     0.13810   0.71790   0.80680   0.01267  Uiso   1.00
O101   O     0.30410   0.80510   0.90060   0.01267  Uiso   1.00
O102   O     0.20620   0.83010   0.94260   0.01267  Uiso   1.00
O103   O     0.19540   0.85480   0.83740   0.01267  Uiso   1.00
O104   O     0.16870   0.71790   0.80680   0.01267  Uiso   1.00
Cl33   Cl    0.78400   0.98460   0.45980   0.01267  Uiso   1.00
Cl34   Cl    0.59490   0.92540   0.37120   0.01267  Uiso   1.00
Cl35   Cl    0.82420   0.01540   0.54020   0.01267  Uiso   1.00
Cl36   Cl    0.72370   0.07460   0.62880   0.01267  Uiso   1.00
O105   O     0.70980   0.97110   0.38440   0.01267  Uiso   1.00
O106   O     0.76780   0.00860   0.52780   0.01267  Uiso   1.00
O107   O     0.80890   0.90920   0.44080   0.01267  Uiso   1.00
O108   O     0.82540   0.02890   0.61560   0.01267  Uiso   1.00
O109   O     0.74000   0.99140   0.47220   0.01267  Uiso   1.00
O110   O     0.86810   0.09080   0.55920   0.01267  Uiso   1.00
Cl37   Cl    0.17580   0.47520   0.45980   0.01267  Uiso   1.00
Cl38   Cl    0.27630   0.44580   0.37120   0.01267  Uiso   1.00
Cl39   Cl    0.21600   0.52480   0.54020   0.01267  Uiso   1.00
Cl40   Cl    0.40510   0.55420   0.62880   0.01267  Uiso   1.00
O111   O     0.17460   0.41330   0.38440   0.01267  Uiso   1.00
O112   O     0.26000   0.51920   0.52780   0.01267  Uiso   1.00
O113   O     0.13190   0.53160   0.44080   0.01267  Uiso   1.00
O114   O     0.29020   0.58670   0.61560   0.01267  Uiso   1.00
O115   O     0.23220   0.48080   0.47220   0.01267  Uiso   1.00
O116   O     0.19110   0.46840   0.55920   0.01267  Uiso   1.00
Cl41   Cl    0.98460   0.17580   0.95980   0.01267  Uiso   1.00
Cl42   Cl    0.92540   0.27630   0.87120   0.01267  Uiso   1.00
Cl43   Cl    0.01540   0.21600   0.04020   0.01267  Uiso   1.00
Cl44   Cl    0.07460   0.40510   0.12880   0.01267  Uiso   1.00
O117   O     0.97110   0.17460   0.88440   0.01267  Uiso   1.00
O118   O     0.00860   0.26000   0.02780   0.01267  Uiso   1.00
O119   O     0.90920   0.13190   0.94080   0.01267  Uiso   1.00
O120   O     0.02890   0.29020   0.11560   0.01267  Uiso   1.00
O121   O     0.99140   0.23220   0.97220   0.01267  Uiso   1.00
O122   O     0.09080   0.19110   0.05920   0.01267  Uiso   1.00
Cl45   Cl    0.47520   0.78400   0.95980   0.01267  Uiso   1.00
Cl46   Cl    0.44580   0.59490   0.87120   0.01267  Uiso   1.00
Cl47   Cl    0.52480   0.82420   0.04020   0.01267  Uiso   1.00
Cl48   Cl    0.55420   0.72370   0.12880   0.01267  Uiso   1.00
O123   O     0.41330   0.70980   0.88440   0.01267  Uiso   1.00
O124   O     0.51920   0.76780   0.02780   0.01267  Uiso   1.00
O125   O     0.53160   0.80890   0.94080   0.01267  Uiso   1.00
O126   O     0.58670   0.82540   0.11560   0.01267  Uiso   1.00
O127   O     0.48080   0.74000   0.97220   0.01267  Uiso   1.00
O128   O     0.46840   0.86810   0.05920   0.01267  Uiso   1.00
