data_KESBIU01_ion_b
_audit_creation_date              2014-07-02
_audit_creation_method            'Materials Studio'
_symmetry_space_group_name_H-M    'P1'
_symmetry_Int_Tables_number       1
_symmetry_cell_setting            triclinic
loop_
_symmetry_equiv_pos_as_xyz
  x,y,z
_cell_length_a                    27.0620
_cell_length_b                    13.0060
_cell_length_c                    33.4860
_cell_angle_alpha                 90.0000
_cell_angle_beta                  90.0000
_cell_angle_gamma                 90.0000
loop_
_atom_site_label
_atom_site_type_symbol
_atom_site_fract_x
_atom_site_fract_y
_atom_site_fract_z
_atom_site_U_iso_or_equiv
_atom_site_adp_type
_atom_site_occupancy
Ag1    Ag    0.71789   0.27712   0.35926   0.00000  Uiso   1.00
Co2    Co    0.06843   0.47425   0.38622   0.00000  Uiso   1.00
C3     C     0.01310   0.65480   0.35640   0.00000  Uiso   1.00
H4     H     0.04150   0.69640   0.35660   0.00000  Uiso   1.00
C5     C     0.96590   0.68790   0.34240   0.00000  Uiso   1.00
H6     H     0.95780   0.75310   0.33230   0.00000  Uiso   1.00
C7     C     0.93510   0.60600   0.34660   0.00000  Uiso   1.00
H8     H     0.90150   0.60420   0.33960   0.00000  Uiso   1.00
C9     C     0.96340   0.52130   0.36396   0.00000  Uiso   1.00
C10    C     0.94660   0.42560   0.37472   0.00000  Uiso   1.00
C11    C     0.97630   0.34780   0.39157   0.00000  Uiso   1.00
C12    C     0.96010   0.24640   0.40400   0.00000  Uiso   1.00
H13    H     0.92780   0.22010   0.40240   0.00000  Uiso   1.00
C14    C     0.00090   0.19610   0.41830   0.00000  Uiso   1.00
H15    H     0.00220   0.12840   0.42810   0.00000  Uiso   1.00
C16    C     0.04100   0.26650   0.41550   0.00000  Uiso   1.00
H17    H     0.07360   0.25220   0.42360   0.00000  Uiso   1.00
C18    C     0.89400   0.39890   0.36667   0.00000  Uiso   1.00
C19    C     0.88010   0.32380   0.33890   0.00000  Uiso   1.00
H20    H     0.90400   0.28910   0.32370   0.00000  Uiso   1.00
C21    C     0.83030   0.30160   0.33425   0.00000  Uiso   1.00
H22    H     0.82150   0.25050   0.31570   0.00000  Uiso   1.00
C23    C     0.80760   0.42220   0.38060   0.00000  Uiso   1.00
H24    H     0.78270   0.45620   0.39510   0.00000  Uiso   1.00
C25    C     0.85600   0.45180   0.38760   0.00000  Uiso   1.00
H26    H     0.86350   0.50510   0.40560   0.00000  Uiso   1.00
C27    C     0.55240   0.83860   0.18450   0.00000  Uiso   1.00
H28    H     0.53670   0.78780   0.16910   0.00000  Uiso   1.00
C29    C     0.55880   0.83250   0.22570   0.00000  Uiso   1.00
H30    H     0.54920   0.77790   0.24250   0.00000  Uiso   1.00
C31    C     0.58120   0.92040   0.23680   0.00000  Uiso   1.00
H32    H     0.58920   0.93990   0.26310   0.00000  Uiso   1.00
C33    C     0.59080   0.97870   0.20143   0.00000  Uiso   1.00
C34    C     0.61780   0.06970   0.19853   0.00000  Uiso   1.00
C35    C     0.62890   0.12100   0.16268   0.00000  Uiso   1.00
C36    C     0.66050   0.20790   0.15720   0.00000  Uiso   1.00
H37    H     0.67680   0.24480   0.17750   0.00000  Uiso   1.00
C38    C     0.66270   0.22750   0.11680   0.00000  Uiso   1.00
H39    H     0.68080   0.27950   0.10400   0.00000  Uiso   1.00
C40    C     0.63180   0.15270   0.09846   0.00000  Uiso   1.00
H41    H     0.62590   0.14950   0.07080   0.00000  Uiso   1.00
C42    C     0.63780   0.11670   0.23653   0.00000  Uiso   1.00
C43    C     0.62130   0.21070   0.25030   0.00000  Uiso   1.00
H44    H     0.59600   0.24590   0.23670   0.00000  Uiso   1.00
C45    C     0.64270   0.25350   0.28490   0.00000  Uiso   1.00
H46    H     0.63140   0.31770   0.29410   0.00000  Uiso   1.00
C47    C     0.69390   0.11650   0.29190   0.00000  Uiso   1.00
H48    H     0.71890   0.08240   0.30610   0.00000  Uiso   1.00
C49    C     0.67520   0.06910   0.25790   0.00000  Uiso   1.00
H50    H     0.68780   0.00540   0.24950   0.00000  Uiso   1.00
C51    C     0.65750   0.15420   0.62620   0.00000  Uiso   1.00
H52    H     0.65490   0.15060   0.65420   0.00000  Uiso   1.00
C53    C     0.69270   0.20960   0.60600   0.00000  Uiso   1.00
H54    H     0.71740   0.25060   0.61770   0.00000  Uiso   1.00
C55    C     0.68550   0.19430   0.56550   0.00000  Uiso   1.00
H56    H     0.70400   0.22370   0.54460   0.00000  Uiso   1.00
C57    C     0.64520   0.12620   0.56149   0.00000  Uiso   1.00
C58    C     0.62360   0.08720   0.52643   0.00000  Uiso   1.00
C59    C     0.58580   0.01630   0.52474   0.00000  Uiso   1.00
C60    C     0.56880   0.95810   0.49050   0.00000  Uiso   1.00
H61    H     0.57960   0.96610   0.46400   0.00000  Uiso   1.00
C62    C     0.53420   0.88940   0.50370   0.00000  Uiso   1.00
H63    H     0.51660   0.84180   0.48800   0.00000  Uiso   1.00
C64    C     0.52980   0.90380   0.54582   0.00000  Uiso   1.00
H65    H     0.50840   0.86590   0.56240   0.00000  Uiso   1.00
C66    C     0.64580   0.12390   0.48719   0.00000  Uiso   1.00
C67    C     0.69410   0.10450   0.47690   0.00000  Uiso   1.00
H68    H     0.71440   0.06480   0.49360   0.00000  Uiso   1.00
C69    C     0.71230   0.14480   0.44120   0.00000  Uiso   1.00
H70    H     0.74520   0.13020   0.43400   0.00000  Uiso   1.00
C71    C     0.63830   0.22320   0.42710   0.00000  Uiso   1.00
H72    H     0.61920   0.26580   0.41060   0.00000  Uiso   1.00
C73    C     0.61670   0.18350   0.46145   0.00000  Uiso   1.00
H74    H     0.58330   0.19620   0.46730   0.00000  Uiso   1.00
N75    N     0.01200   0.55690   0.36915   0.00000  Uiso   1.00
N76    N     0.02615   0.35630   0.39971   0.00000  Uiso   1.00
N77    N     0.79335   0.34940   0.35494   0.00000  Uiso   1.00
N78    N     0.57166   0.92660   0.16920   0.00000  Uiso   1.00
N79    N     0.61231   0.08800   0.12484   0.00000  Uiso   1.00
N80    N     0.67890   0.20500   0.30521   0.00000  Uiso   1.00
N81    N     0.62700   0.10520   0.60026   0.00000  Uiso   1.00
N82    N     0.56023   0.97860   0.55876   0.00000  Uiso   1.00
N83    N     0.68480   0.20420   0.41646   0.00000  Uiso   1.00
P84    P     0.66147   0.52693   0.36944   0.00000  Uiso   1.00
F85    F     0.62510   0.58020   0.34080   0.00000  Uiso   1.00
F86    F     0.65030   0.41670   0.36050   0.00000  Uiso   1.00
F87    F     0.70760   0.56590   0.35680   0.00000  Uiso   1.00
F88    F     0.65430   0.61240   0.40420   0.00000  Uiso   1.00
F89    F     0.60890   0.50210   0.39900   0.00000  Uiso   1.00
F90    F     0.68720   0.46620   0.40880   0.00000  Uiso   1.00
Ag91   Ag    0.78211   0.22288   0.85926   0.00000  Uiso   1.00
Co92   Co    0.43157   0.02575   0.88622   0.00000  Uiso   1.00
C93    C     0.48690   0.84520   0.85640   0.00000  Uiso   1.00
H94    H     0.45850   0.80360   0.85660   0.00000  Uiso   1.00
C95    C     0.53410   0.81210   0.84240   0.00000  Uiso   1.00
H96    H     0.54220   0.74690   0.83230   0.00000  Uiso   1.00
C97    C     0.56490   0.89400   0.84660   0.00000  Uiso   1.00
H98    H     0.59850   0.89580   0.83960   0.00000  Uiso   1.00
C99    C     0.53660   0.97870   0.86396   0.00000  Uiso   1.00
C100   C     0.55340   0.07440   0.87472   0.00000  Uiso   1.00
C101   C     0.52370   0.15220   0.89157   0.00000  Uiso   1.00
C102   C     0.53990   0.25360   0.90400   0.00000  Uiso   1.00
H103   H     0.57220   0.27990   0.90240   0.00000  Uiso   1.00
C104   C     0.49910   0.30390   0.91830   0.00000  Uiso   1.00
H105   H     0.49780   0.37160   0.92810   0.00000  Uiso   1.00
C106   C     0.45900   0.23350   0.91550   0.00000  Uiso   1.00
H107   H     0.42640   0.24780   0.92360   0.00000  Uiso   1.00
C108   C     0.60600   0.10110   0.86667   0.00000  Uiso   1.00
C109   C     0.61990   0.17620   0.83890   0.00000  Uiso   1.00
H110   H     0.59600   0.21090   0.82370   0.00000  Uiso   1.00
C111   C     0.66970   0.19840   0.83425   0.00000  Uiso   1.00
H112   H     0.67850   0.24950   0.81570   0.00000  Uiso   1.00
C113   C     0.69240   0.07780   0.88060   0.00000  Uiso   1.00
H114   H     0.71730   0.04380   0.89510   0.00000  Uiso   1.00
C115   C     0.64400   0.04820   0.88760   0.00000  Uiso   1.00
H116   H     0.63650   0.99490   0.90560   0.00000  Uiso   1.00
C117   C     0.94760   0.66140   0.68450   0.00000  Uiso   1.00
H118   H     0.96330   0.71220   0.66910   0.00000  Uiso   1.00
C119   C     0.94120   0.66750   0.72570   0.00000  Uiso   1.00
H120   H     0.95080   0.72210   0.74250   0.00000  Uiso   1.00
C121   C     0.91880   0.57960   0.73680   0.00000  Uiso   1.00
H122   H     0.91080   0.56010   0.76310   0.00000  Uiso   1.00
C123   C     0.90920   0.52130   0.70143   0.00000  Uiso   1.00
C124   C     0.88220   0.43030   0.69853   0.00000  Uiso   1.00
C125   C     0.87110   0.37900   0.66268   0.00000  Uiso   1.00
C126   C     0.83950   0.29210   0.65720   0.00000  Uiso   1.00
H127   H     0.82320   0.25520   0.67750   0.00000  Uiso   1.00
C128   C     0.83730   0.27250   0.61680   0.00000  Uiso   1.00
H129   H     0.81920   0.22050   0.60400   0.00000  Uiso   1.00
C130   C     0.86820   0.34730   0.59846   0.00000  Uiso   1.00
H131   H     0.87410   0.35050   0.57080   0.00000  Uiso   1.00
C132   C     0.86220   0.38330   0.73653   0.00000  Uiso   1.00
C133   C     0.87870   0.28930   0.75030   0.00000  Uiso   1.00
H134   H     0.90400   0.25410   0.73670   0.00000  Uiso   1.00
C135   C     0.85730   0.24650   0.78490   0.00000  Uiso   1.00
H136   H     0.86860   0.18230   0.79410   0.00000  Uiso   1.00
C137   C     0.80610   0.38350   0.79190   0.00000  Uiso   1.00
H138   H     0.78110   0.41760   0.80610   0.00000  Uiso   1.00
C139   C     0.82480   0.43090   0.75790   0.00000  Uiso   1.00
H140   H     0.81220   0.49460   0.74950   0.00000  Uiso   1.00
C141   C     0.84250   0.34580   0.12620   0.00000  Uiso   1.00
H142   H     0.84510   0.34940   0.15420   0.00000  Uiso   1.00
C143   C     0.80730   0.29040   0.10600   0.00000  Uiso   1.00
H144   H     0.78260   0.24940   0.11770   0.00000  Uiso   1.00
C145   C     0.81450   0.30570   0.06550   0.00000  Uiso   1.00
H146   H     0.79600   0.27630   0.04460   0.00000  Uiso   1.00
C147   C     0.85480   0.37380   0.06149   0.00000  Uiso   1.00
C148   C     0.87640   0.41280   0.02643   0.00000  Uiso   1.00
C149   C     0.91420   0.48370   0.02474   0.00000  Uiso   1.00
C150   C     0.93120   0.54190   0.99050   0.00000  Uiso   1.00
H151   H     0.92040   0.53390   0.96400   0.00000  Uiso   1.00
C152   C     0.96580   0.61060   0.00370   0.00000  Uiso   1.00
H153   H     0.98340   0.65820   0.98800   0.00000  Uiso   1.00
C154   C     0.97020   0.59620   0.04582   0.00000  Uiso   1.00
H155   H     0.99160   0.63410   0.06240   0.00000  Uiso   1.00
C156   C     0.85420   0.37610   0.98719   0.00000  Uiso   1.00
C157   C     0.80590   0.39550   0.97690   0.00000  Uiso   1.00
H158   H     0.78560   0.43520   0.99360   0.00000  Uiso   1.00
C159   C     0.78770   0.35520   0.94120   0.00000  Uiso   1.00
H160   H     0.75480   0.36980   0.93400   0.00000  Uiso   1.00
C161   C     0.86170   0.27680   0.92710   0.00000  Uiso   1.00
H162   H     0.88080   0.23420   0.91060   0.00000  Uiso   1.00
C163   C     0.88330   0.31650   0.96145   0.00000  Uiso   1.00
H164   H     0.91670   0.30380   0.96730   0.00000  Uiso   1.00
N165   N     0.48800   0.94310   0.86915   0.00000  Uiso   1.00
N166   N     0.47385   0.14370   0.89971   0.00000  Uiso   1.00
N167   N     0.70665   0.15060   0.85494   0.00000  Uiso   1.00
N168   N     0.92834   0.57340   0.66920   0.00000  Uiso   1.00
N169   N     0.88769   0.41200   0.62484   0.00000  Uiso   1.00
N170   N     0.82110   0.29500   0.80521   0.00000  Uiso   1.00
N171   N     0.87300   0.39480   0.10026   0.00000  Uiso   1.00
N172   N     0.93977   0.52140   0.05876   0.00000  Uiso   1.00
N173   N     0.81520   0.29580   0.91646   0.00000  Uiso   1.00
P174   P     0.83853   0.97307   0.86944   0.00000  Uiso   1.00
F175   F     0.87490   0.91980   0.84080   0.00000  Uiso   1.00
F176   F     0.84970   0.08330   0.86050   0.00000  Uiso   1.00
F177   F     0.79240   0.93410   0.85680   0.00000  Uiso   1.00
F178   F     0.84570   0.88760   0.90420   0.00000  Uiso   1.00
F179   F     0.89110   0.99790   0.89900   0.00000  Uiso   1.00
F180   F     0.81280   0.03380   0.90880   0.00000  Uiso   1.00
Ag181  Ag    0.28211   0.27712   0.14074   0.00000  Uiso   1.00
Co182  Co    0.93157   0.47425   0.11378   0.00000  Uiso   1.00
C183   C     0.98690   0.65480   0.14360   0.00000  Uiso   1.00
H184   H     0.95850   0.69640   0.14340   0.00000  Uiso   1.00
C185   C     0.03410   0.68790   0.15760   0.00000  Uiso   1.00
H186   H     0.04220   0.75310   0.16770   0.00000  Uiso   1.00
C187   C     0.06490   0.60600   0.15340   0.00000  Uiso   1.00
H188   H     0.09850   0.60420   0.16040   0.00000  Uiso   1.00
C189   C     0.03660   0.52130   0.13604   0.00000  Uiso   1.00
C190   C     0.05340   0.42560   0.12528   0.00000  Uiso   1.00
C191   C     0.02370   0.34780   0.10843   0.00000  Uiso   1.00
C192   C     0.03990   0.24640   0.09600   0.00000  Uiso   1.00
H193   H     0.07220   0.22010   0.09760   0.00000  Uiso   1.00
C194   C     0.99910   0.19610   0.08170   0.00000  Uiso   1.00
H195   H     0.99780   0.12840   0.07190   0.00000  Uiso   1.00
C196   C     0.95900   0.26650   0.08450   0.00000  Uiso   1.00
H197   H     0.92640   0.25220   0.07640   0.00000  Uiso   1.00
C198   C     0.10600   0.39890   0.13333   0.00000  Uiso   1.00
C199   C     0.11990   0.32380   0.16110   0.00000  Uiso   1.00
H200   H     0.09600   0.28910   0.17630   0.00000  Uiso   1.00
C201   C     0.16970   0.30160   0.16575   0.00000  Uiso   1.00
H202   H     0.17850   0.25050   0.18430   0.00000  Uiso   1.00
C203   C     0.19240   0.42220   0.11940   0.00000  Uiso   1.00
H204   H     0.21730   0.45620   0.10490   0.00000  Uiso   1.00
C205   C     0.14400   0.45180   0.11240   0.00000  Uiso   1.00
H206   H     0.13650   0.50510   0.09440   0.00000  Uiso   1.00
C207   C     0.44760   0.83860   0.31550   0.00000  Uiso   1.00
H208   H     0.46330   0.78780   0.33090   0.00000  Uiso   1.00
C209   C     0.44120   0.83250   0.27430   0.00000  Uiso   1.00
H210   H     0.45080   0.77790   0.25750   0.00000  Uiso   1.00
C211   C     0.41880   0.92040   0.26320   0.00000  Uiso   1.00
H212   H     0.41080   0.93990   0.23690   0.00000  Uiso   1.00
C213   C     0.40920   0.97870   0.29857   0.00000  Uiso   1.00
C214   C     0.38220   0.06970   0.30147   0.00000  Uiso   1.00
C215   C     0.37110   0.12100   0.33732   0.00000  Uiso   1.00
C216   C     0.33950   0.20790   0.34280   0.00000  Uiso   1.00
H217   H     0.32320   0.24480   0.32250   0.00000  Uiso   1.00
C218   C     0.33730   0.22750   0.38320   0.00000  Uiso   1.00
H219   H     0.31920   0.27950   0.39600   0.00000  Uiso   1.00
C220   C     0.36820   0.15270   0.40154   0.00000  Uiso   1.00
H221   H     0.37410   0.14950   0.42920   0.00000  Uiso   1.00
C222   C     0.36220   0.11670   0.26347   0.00000  Uiso   1.00
C223   C     0.37870   0.21070   0.24970   0.00000  Uiso   1.00
H224   H     0.40400   0.24590   0.26330   0.00000  Uiso   1.00
C225   C     0.35730   0.25350   0.21510   0.00000  Uiso   1.00
H226   H     0.36860   0.31770   0.20590   0.00000  Uiso   1.00
C227   C     0.30610   0.11650   0.20810   0.00000  Uiso   1.00
H228   H     0.28110   0.08240   0.19390   0.00000  Uiso   1.00
C229   C     0.32480   0.06910   0.24210   0.00000  Uiso   1.00
H230   H     0.31220   0.00540   0.25050   0.00000  Uiso   1.00
C231   C     0.34250   0.15420   0.87380   0.00000  Uiso   1.00
H232   H     0.34510   0.15060   0.84580   0.00000  Uiso   1.00
C233   C     0.30730   0.20960   0.89400   0.00000  Uiso   1.00
H234   H     0.28260   0.25060   0.88230   0.00000  Uiso   1.00
C235   C     0.31450   0.19430   0.93450   0.00000  Uiso   1.00
H236   H     0.29600   0.22370   0.95540   0.00000  Uiso   1.00
C237   C     0.35480   0.12620   0.93851   0.00000  Uiso   1.00
C238   C     0.37640   0.08720   0.97357   0.00000  Uiso   1.00
C239   C     0.41420   0.01630   0.97526   0.00000  Uiso   1.00
C240   C     0.43120   0.95810   0.00950   0.00000  Uiso   1.00
H241   H     0.42040   0.96610   0.03600   0.00000  Uiso   1.00
C242   C     0.46580   0.88940   0.99630   0.00000  Uiso   1.00
H243   H     0.48340   0.84180   0.01200   0.00000  Uiso   1.00
C244   C     0.47020   0.90380   0.95418   0.00000  Uiso   1.00
H245   H     0.49160   0.86590   0.93760   0.00000  Uiso   1.00
C246   C     0.35420   0.12390   0.01281   0.00000  Uiso   1.00
C247   C     0.30590   0.10450   0.02310   0.00000  Uiso   1.00
H248   H     0.28560   0.06480   0.00640   0.00000  Uiso   1.00
C249   C     0.28770   0.14480   0.05880   0.00000  Uiso   1.00
H250   H     0.25480   0.13020   0.06600   0.00000  Uiso   1.00
C251   C     0.36170   0.22320   0.07290   0.00000  Uiso   1.00
H252   H     0.38080   0.26580   0.08940   0.00000  Uiso   1.00
C253   C     0.38330   0.18350   0.03855   0.00000  Uiso   1.00
H254   H     0.41670   0.19620   0.03270   0.00000  Uiso   1.00
N255   N     0.98800   0.55690   0.13085   0.00000  Uiso   1.00
N256   N     0.97385   0.35630   0.10029   0.00000  Uiso   1.00
N257   N     0.20665   0.34940   0.14506   0.00000  Uiso   1.00
N258   N     0.42834   0.92660   0.33080   0.00000  Uiso   1.00
N259   N     0.38769   0.08800   0.37516   0.00000  Uiso   1.00
N260   N     0.32110   0.20500   0.19479   0.00000  Uiso   1.00
N261   N     0.37300   0.10520   0.89974   0.00000  Uiso   1.00
N262   N     0.43977   0.97860   0.94124   0.00000  Uiso   1.00
N263   N     0.31520   0.20420   0.08354   0.00000  Uiso   1.00
P264   P     0.33853   0.52693   0.13056   0.00000  Uiso   1.00
F265   F     0.37490   0.58020   0.15920   0.00000  Uiso   1.00
F266   F     0.34970   0.41670   0.13950   0.00000  Uiso   1.00
F267   F     0.29240   0.56590   0.14320   0.00000  Uiso   1.00
F268   F     0.34570   0.61240   0.09580   0.00000  Uiso   1.00
F269   F     0.39110   0.50210   0.10100   0.00000  Uiso   1.00
F270   F     0.31280   0.46620   0.09120   0.00000  Uiso   1.00
Ag271  Ag    0.21789   0.22288   0.64074   0.00000  Uiso   1.00
Co272  Co    0.56843   0.02575   0.61378   0.00000  Uiso   1.00
C273   C     0.51310   0.84520   0.64360   0.00000  Uiso   1.00
H274   H     0.54150   0.80360   0.64340   0.00000  Uiso   1.00
C275   C     0.46590   0.81210   0.65760   0.00000  Uiso   1.00
H276   H     0.45780   0.74690   0.66770   0.00000  Uiso   1.00
C277   C     0.43510   0.89400   0.65340   0.00000  Uiso   1.00
H278   H     0.40150   0.89580   0.66040   0.00000  Uiso   1.00
C279   C     0.46340   0.97870   0.63604   0.00000  Uiso   1.00
C280   C     0.44660   0.07440   0.62528   0.00000  Uiso   1.00
C281   C     0.47630   0.15220   0.60843   0.00000  Uiso   1.00
C282   C     0.46010   0.25360   0.59600   0.00000  Uiso   1.00
H283   H     0.42780   0.27990   0.59760   0.00000  Uiso   1.00
C284   C     0.50090   0.30390   0.58170   0.00000  Uiso   1.00
H285   H     0.50220   0.37160   0.57190   0.00000  Uiso   1.00
C286   C     0.54100   0.23350   0.58450   0.00000  Uiso   1.00
H287   H     0.57360   0.24780   0.57640   0.00000  Uiso   1.00
C288   C     0.39400   0.10110   0.63333   0.00000  Uiso   1.00
C289   C     0.38010   0.17620   0.66110   0.00000  Uiso   1.00
H290   H     0.40400   0.21090   0.67630   0.00000  Uiso   1.00
C291   C     0.33030   0.19840   0.66575   0.00000  Uiso   1.00
H292   H     0.32150   0.24950   0.68430   0.00000  Uiso   1.00
C293   C     0.30760   0.07780   0.61940   0.00000  Uiso   1.00
H294   H     0.28270   0.04380   0.60490   0.00000  Uiso   1.00
C295   C     0.35600   0.04820   0.61240   0.00000  Uiso   1.00
H296   H     0.36350   0.99490   0.59440   0.00000  Uiso   1.00
C297   C     0.05240   0.66140   0.81550   0.00000  Uiso   1.00
H298   H     0.03670   0.71220   0.83090   0.00000  Uiso   1.00
C299   C     0.05880   0.66750   0.77430   0.00000  Uiso   1.00
H300   H     0.04920   0.72210   0.75750   0.00000  Uiso   1.00
C301   C     0.08120   0.57960   0.76320   0.00000  Uiso   1.00
H302   H     0.08920   0.56010   0.73690   0.00000  Uiso   1.00
C303   C     0.09080   0.52130   0.79857   0.00000  Uiso   1.00
C304   C     0.11780   0.43030   0.80147   0.00000  Uiso   1.00
C305   C     0.12890   0.37900   0.83732   0.00000  Uiso   1.00
C306   C     0.16050   0.29210   0.84280   0.00000  Uiso   1.00
H307   H     0.17680   0.25520   0.82250   0.00000  Uiso   1.00
C308   C     0.16270   0.27250   0.88320   0.00000  Uiso   1.00
H309   H     0.18080   0.22050   0.89600   0.00000  Uiso   1.00
C310   C     0.13180   0.34730   0.90154   0.00000  Uiso   1.00
H311   H     0.12590   0.35050   0.92920   0.00000  Uiso   1.00
C312   C     0.13780   0.38330   0.76347   0.00000  Uiso   1.00
C313   C     0.12130   0.28930   0.74970   0.00000  Uiso   1.00
H314   H     0.09600   0.25410   0.76330   0.00000  Uiso   1.00
C315   C     0.14270   0.24650   0.71510   0.00000  Uiso   1.00
H316   H     0.13140   0.18230   0.70590   0.00000  Uiso   1.00
C317   C     0.19390   0.38350   0.70810   0.00000  Uiso   1.00
H318   H     0.21890   0.41760   0.69390   0.00000  Uiso   1.00
C319   C     0.17520   0.43090   0.74210   0.00000  Uiso   1.00
H320   H     0.18780   0.49460   0.75050   0.00000  Uiso   1.00
C321   C     0.15750   0.34580   0.37380   0.00000  Uiso   1.00
H322   H     0.15490   0.34940   0.34580   0.00000  Uiso   1.00
C323   C     0.19270   0.29040   0.39400   0.00000  Uiso   1.00
H324   H     0.21740   0.24940   0.38230   0.00000  Uiso   1.00
C325   C     0.18550   0.30570   0.43450   0.00000  Uiso   1.00
H326   H     0.20400   0.27630   0.45540   0.00000  Uiso   1.00
C327   C     0.14520   0.37380   0.43851   0.00000  Uiso   1.00
C328   C     0.12360   0.41280   0.47357   0.00000  Uiso   1.00
C329   C     0.08580   0.48370   0.47526   0.00000  Uiso   1.00
C330   C     0.06880   0.54190   0.50950   0.00000  Uiso   1.00
H331   H     0.07960   0.53390   0.53600   0.00000  Uiso   1.00
C332   C     0.03420   0.61060   0.49630   0.00000  Uiso   1.00
H333   H     0.01660   0.65820   0.51200   0.00000  Uiso   1.00
C334   C     0.02980   0.59620   0.45418   0.00000  Uiso   1.00
H335   H     0.00840   0.63410   0.43760   0.00000  Uiso   1.00
C336   C     0.14580   0.37610   0.51281   0.00000  Uiso   1.00
C337   C     0.19410   0.39550   0.52310   0.00000  Uiso   1.00
H338   H     0.21440   0.43520   0.50640   0.00000  Uiso   1.00
C339   C     0.21230   0.35520   0.55880   0.00000  Uiso   1.00
H340   H     0.24520   0.36980   0.56600   0.00000  Uiso   1.00
C341   C     0.13830   0.27680   0.57290   0.00000  Uiso   1.00
H342   H     0.11920   0.23420   0.58940   0.00000  Uiso   1.00
C343   C     0.11670   0.31650   0.53855   0.00000  Uiso   1.00
H344   H     0.08330   0.30380   0.53270   0.00000  Uiso   1.00
N345   N     0.51200   0.94310   0.63085   0.00000  Uiso   1.00
N346   N     0.52615   0.14370   0.60029   0.00000  Uiso   1.00
N347   N     0.29335   0.15060   0.64506   0.00000  Uiso   1.00
N348   N     0.07166   0.57340   0.83080   0.00000  Uiso   1.00
N349   N     0.11231   0.41200   0.87516   0.00000  Uiso   1.00
N350   N     0.17890   0.29500   0.69479   0.00000  Uiso   1.00
N351   N     0.12700   0.39480   0.39974   0.00000  Uiso   1.00
N352   N     0.06023   0.52140   0.44124   0.00000  Uiso   1.00
N353   N     0.18480   0.29580   0.58354   0.00000  Uiso   1.00
P354   P     0.16147   0.97307   0.63056   0.00000  Uiso   1.00
F355   F     0.12510   0.91980   0.65920   0.00000  Uiso   1.00
F356   F     0.15030   0.08330   0.63950   0.00000  Uiso   1.00
F357   F     0.20760   0.93410   0.64320   0.00000  Uiso   1.00
F358   F     0.15430   0.88760   0.59580   0.00000  Uiso   1.00
F359   F     0.10890   0.99790   0.60100   0.00000  Uiso   1.00
F360   F     0.18720   0.03380   0.59120   0.00000  Uiso   1.00
Ag361  Ag    0.28211   0.72288   0.64074   0.00000  Uiso   1.00
Co362  Co    0.93157   0.52575   0.61378   0.00000  Uiso   1.00
C363   C     0.98690   0.34520   0.64360   0.00000  Uiso   1.00
H364   H     0.95850   0.30360   0.64340   0.00000  Uiso   1.00
C365   C     0.03410   0.31210   0.65760   0.00000  Uiso   1.00
H366   H     0.04220   0.24690   0.66770   0.00000  Uiso   1.00
C367   C     0.06490   0.39400   0.65340   0.00000  Uiso   1.00
H368   H     0.09850   0.39580   0.66040   0.00000  Uiso   1.00
C369   C     0.03660   0.47870   0.63604   0.00000  Uiso   1.00
C370   C     0.05340   0.57440   0.62528   0.00000  Uiso   1.00
C371   C     0.02370   0.65220   0.60843   0.00000  Uiso   1.00
C372   C     0.03990   0.75360   0.59600   0.00000  Uiso   1.00
H373   H     0.07220   0.77990   0.59760   0.00000  Uiso   1.00
C374   C     0.99910   0.80390   0.58170   0.00000  Uiso   1.00
H375   H     0.99780   0.87160   0.57190   0.00000  Uiso   1.00
C376   C     0.95900   0.73350   0.58450   0.00000  Uiso   1.00
H377   H     0.92640   0.74780   0.57640   0.00000  Uiso   1.00
C378   C     0.10600   0.60110   0.63333   0.00000  Uiso   1.00
C379   C     0.11990   0.67620   0.66110   0.00000  Uiso   1.00
H380   H     0.09600   0.71090   0.67630   0.00000  Uiso   1.00
C381   C     0.16970   0.69840   0.66575   0.00000  Uiso   1.00
H382   H     0.17850   0.74950   0.68430   0.00000  Uiso   1.00
C383   C     0.19240   0.57780   0.61940   0.00000  Uiso   1.00
H384   H     0.21730   0.54380   0.60490   0.00000  Uiso   1.00
C385   C     0.14400   0.54820   0.61240   0.00000  Uiso   1.00
H386   H     0.13650   0.49490   0.59440   0.00000  Uiso   1.00
C387   C     0.44760   0.16140   0.81550   0.00000  Uiso   1.00
H388   H     0.46330   0.21220   0.83090   0.00000  Uiso   1.00
C389   C     0.44120   0.16750   0.77430   0.00000  Uiso   1.00
H390   H     0.45080   0.22210   0.75750   0.00000  Uiso   1.00
C391   C     0.41880   0.07960   0.76320   0.00000  Uiso   1.00
H392   H     0.41080   0.06010   0.73690   0.00000  Uiso   1.00
C393   C     0.40920   0.02130   0.79857   0.00000  Uiso   1.00
C394   C     0.38220   0.93030   0.80147   0.00000  Uiso   1.00
C395   C     0.37110   0.87900   0.83732   0.00000  Uiso   1.00
C396   C     0.33950   0.79210   0.84280   0.00000  Uiso   1.00
H397   H     0.32320   0.75520   0.82250   0.00000  Uiso   1.00
C398   C     0.33730   0.77250   0.88320   0.00000  Uiso   1.00
H399   H     0.31920   0.72050   0.89600   0.00000  Uiso   1.00
C400   C     0.36820   0.84730   0.90154   0.00000  Uiso   1.00
H401   H     0.37410   0.85050   0.92920   0.00000  Uiso   1.00
C402   C     0.36220   0.88330   0.76347   0.00000  Uiso   1.00
C403   C     0.37870   0.78930   0.74970   0.00000  Uiso   1.00
H404   H     0.40400   0.75410   0.76330   0.00000  Uiso   1.00
C405   C     0.35730   0.74650   0.71510   0.00000  Uiso   1.00
H406   H     0.36860   0.68230   0.70590   0.00000  Uiso   1.00
C407   C     0.30610   0.88350   0.70810   0.00000  Uiso   1.00
H408   H     0.28110   0.91760   0.69390   0.00000  Uiso   1.00
C409   C     0.32480   0.93090   0.74210   0.00000  Uiso   1.00
H410   H     0.31220   0.99460   0.75050   0.00000  Uiso   1.00
C411   C     0.34250   0.84580   0.37380   0.00000  Uiso   1.00
H412   H     0.34510   0.84940   0.34580   0.00000  Uiso   1.00
C413   C     0.30730   0.79040   0.39400   0.00000  Uiso   1.00
H414   H     0.28260   0.74940   0.38230   0.00000  Uiso   1.00
C415   C     0.31450   0.80570   0.43450   0.00000  Uiso   1.00
H416   H     0.29600   0.77630   0.45540   0.00000  Uiso   1.00
C417   C     0.35480   0.87380   0.43851   0.00000  Uiso   1.00
C418   C     0.37640   0.91280   0.47357   0.00000  Uiso   1.00
C419   C     0.41420   0.98370   0.47526   0.00000  Uiso   1.00
C420   C     0.43120   0.04190   0.50950   0.00000  Uiso   1.00
H421   H     0.42040   0.03390   0.53600   0.00000  Uiso   1.00
C422   C     0.46580   0.11060   0.49630   0.00000  Uiso   1.00
H423   H     0.48340   0.15820   0.51200   0.00000  Uiso   1.00
C424   C     0.47020   0.09620   0.45418   0.00000  Uiso   1.00
H425   H     0.49160   0.13410   0.43760   0.00000  Uiso   1.00
C426   C     0.35420   0.87610   0.51281   0.00000  Uiso   1.00
C427   C     0.30590   0.89550   0.52310   0.00000  Uiso   1.00
H428   H     0.28560   0.93520   0.50640   0.00000  Uiso   1.00
C429   C     0.28770   0.85520   0.55880   0.00000  Uiso   1.00
H430   H     0.25480   0.86980   0.56600   0.00000  Uiso   1.00
C431   C     0.36170   0.77680   0.57290   0.00000  Uiso   1.00
H432   H     0.38080   0.73420   0.58940   0.00000  Uiso   1.00
C433   C     0.38330   0.81650   0.53855   0.00000  Uiso   1.00
H434   H     0.41670   0.80380   0.53270   0.00000  Uiso   1.00
N435   N     0.98800   0.44310   0.63085   0.00000  Uiso   1.00
N436   N     0.97385   0.64370   0.60029   0.00000  Uiso   1.00
N437   N     0.20665   0.65060   0.64506   0.00000  Uiso   1.00
N438   N     0.42834   0.07340   0.83080   0.00000  Uiso   1.00
N439   N     0.38769   0.91200   0.87516   0.00000  Uiso   1.00
N440   N     0.32110   0.79500   0.69479   0.00000  Uiso   1.00
N441   N     0.37300   0.89480   0.39974   0.00000  Uiso   1.00
N442   N     0.43977   0.02140   0.44124   0.00000  Uiso   1.00
N443   N     0.31520   0.79580   0.58354   0.00000  Uiso   1.00
P444   P     0.33853   0.47307   0.63056   0.00000  Uiso   1.00
F445   F     0.37490   0.41980   0.65920   0.00000  Uiso   1.00
F446   F     0.34970   0.58330   0.63950   0.00000  Uiso   1.00
F447   F     0.29240   0.43410   0.64320   0.00000  Uiso   1.00
F448   F     0.34570   0.38760   0.59580   0.00000  Uiso   1.00
F449   F     0.39110   0.49790   0.60100   0.00000  Uiso   1.00
F450   F     0.31280   0.53380   0.59120   0.00000  Uiso   1.00
Ag451  Ag    0.21789   0.77712   0.14074   0.00000  Uiso   1.00
Co452  Co    0.56843   0.97425   0.11378   0.00000  Uiso   1.00
C453   C     0.51310   0.15480   0.14360   0.00000  Uiso   1.00
H454   H     0.54150   0.19640   0.14340   0.00000  Uiso   1.00
C455   C     0.46590   0.18790   0.15760   0.00000  Uiso   1.00
H456   H     0.45780   0.25310   0.16770   0.00000  Uiso   1.00
C457   C     0.43510   0.10600   0.15340   0.00000  Uiso   1.00
H458   H     0.40150   0.10420   0.16040   0.00000  Uiso   1.00
C459   C     0.46340   0.02130   0.13604   0.00000  Uiso   1.00
C460   C     0.44660   0.92560   0.12528   0.00000  Uiso   1.00
C461   C     0.47630   0.84780   0.10843   0.00000  Uiso   1.00
C462   C     0.46010   0.74640   0.09600   0.00000  Uiso   1.00
H463   H     0.42780   0.72010   0.09760   0.00000  Uiso   1.00
C464   C     0.50090   0.69610   0.08170   0.00000  Uiso   1.00
H465   H     0.50220   0.62840   0.07190   0.00000  Uiso   1.00
C466   C     0.54100   0.76650   0.08450   0.00000  Uiso   1.00
H467   H     0.57360   0.75220   0.07640   0.00000  Uiso   1.00
C468   C     0.39400   0.89890   0.13333   0.00000  Uiso   1.00
C469   C     0.38010   0.82380   0.16110   0.00000  Uiso   1.00
H470   H     0.40400   0.78910   0.17630   0.00000  Uiso   1.00
C471   C     0.33030   0.80160   0.16575   0.00000  Uiso   1.00
H472   H     0.32150   0.75050   0.18430   0.00000  Uiso   1.00
C473   C     0.30760   0.92220   0.11940   0.00000  Uiso   1.00
H474   H     0.28270   0.95620   0.10490   0.00000  Uiso   1.00
C475   C     0.35600   0.95180   0.11240   0.00000  Uiso   1.00
H476   H     0.36350   0.00510   0.09440   0.00000  Uiso   1.00
C477   C     0.05240   0.33860   0.31550   0.00000  Uiso   1.00
H478   H     0.03670   0.28780   0.33090   0.00000  Uiso   1.00
C479   C     0.05880   0.33250   0.27430   0.00000  Uiso   1.00
H480   H     0.04920   0.27790   0.25750   0.00000  Uiso   1.00
C481   C     0.08120   0.42040   0.26320   0.00000  Uiso   1.00
H482   H     0.08920   0.43990   0.23690   0.00000  Uiso   1.00
C483   C     0.09080   0.47870   0.29857   0.00000  Uiso   1.00
C484   C     0.11780   0.56970   0.30147   0.00000  Uiso   1.00
C485   C     0.12890   0.62100   0.33732   0.00000  Uiso   1.00
C486   C     0.16050   0.70790   0.34280   0.00000  Uiso   1.00
H487   H     0.17680   0.74480   0.32250   0.00000  Uiso   1.00
C488   C     0.16270   0.72750   0.38320   0.00000  Uiso   1.00
H489   H     0.18080   0.77950   0.39600   0.00000  Uiso   1.00
C490   C     0.13180   0.65270   0.40154   0.00000  Uiso   1.00
H491   H     0.12590   0.64950   0.42920   0.00000  Uiso   1.00
C492   C     0.13780   0.61670   0.26347   0.00000  Uiso   1.00
C493   C     0.12130   0.71070   0.24970   0.00000  Uiso   1.00
H494   H     0.09600   0.74590   0.26330   0.00000  Uiso   1.00
C495   C     0.14270   0.75350   0.21510   0.00000  Uiso   1.00
H496   H     0.13140   0.81770   0.20590   0.00000  Uiso   1.00
C497   C     0.19390   0.61650   0.20810   0.00000  Uiso   1.00
H498   H     0.21890   0.58240   0.19390   0.00000  Uiso   1.00
C499   C     0.17520   0.56910   0.24210   0.00000  Uiso   1.00
H500   H     0.18780   0.50540   0.25050   0.00000  Uiso   1.00
C501   C     0.15750   0.65420   0.87380   0.00000  Uiso   1.00
H502   H     0.15490   0.65060   0.84580   0.00000  Uiso   1.00
C503   C     0.19270   0.70960   0.89400   0.00000  Uiso   1.00
H504   H     0.21740   0.75060   0.88230   0.00000  Uiso   1.00
C505   C     0.18550   0.69430   0.93450   0.00000  Uiso   1.00
H506   H     0.20400   0.72370   0.95540   0.00000  Uiso   1.00
C507   C     0.14520   0.62620   0.93851   0.00000  Uiso   1.00
C508   C     0.12360   0.58720   0.97357   0.00000  Uiso   1.00
C509   C     0.08580   0.51630   0.97526   0.00000  Uiso   1.00
C510   C     0.06880   0.45810   0.00950   0.00000  Uiso   1.00
H511   H     0.07960   0.46610   0.03600   0.00000  Uiso   1.00
C512   C     0.03420   0.38940   0.99630   0.00000  Uiso   1.00
H513   H     0.01660   0.34180   0.01200   0.00000  Uiso   1.00
C514   C     0.02980   0.40380   0.95418   0.00000  Uiso   1.00
H515   H     0.00840   0.36590   0.93760   0.00000  Uiso   1.00
C516   C     0.14580   0.62390   0.01281   0.00000  Uiso   1.00
C517   C     0.19410   0.60450   0.02310   0.00000  Uiso   1.00
H518   H     0.21440   0.56480   0.00640   0.00000  Uiso   1.00
C519   C     0.21230   0.64480   0.05880   0.00000  Uiso   1.00
H520   H     0.24520   0.63020   0.06600   0.00000  Uiso   1.00
C521   C     0.13830   0.72320   0.07290   0.00000  Uiso   1.00
H522   H     0.11920   0.76580   0.08940   0.00000  Uiso   1.00
C523   C     0.11670   0.68350   0.03855   0.00000  Uiso   1.00
H524   H     0.08330   0.69620   0.03270   0.00000  Uiso   1.00
N525   N     0.51200   0.05690   0.13085   0.00000  Uiso   1.00
N526   N     0.52615   0.85630   0.10029   0.00000  Uiso   1.00
N527   N     0.29335   0.84940   0.14506   0.00000  Uiso   1.00
N528   N     0.07166   0.42660   0.33080   0.00000  Uiso   1.00
N529   N     0.11231   0.58800   0.37516   0.00000  Uiso   1.00
N530   N     0.17890   0.70500   0.19479   0.00000  Uiso   1.00
N531   N     0.12700   0.60520   0.89974   0.00000  Uiso   1.00
N532   N     0.06023   0.47860   0.94124   0.00000  Uiso   1.00
N533   N     0.18480   0.70420   0.08354   0.00000  Uiso   1.00
P534   P     0.16147   0.02693   0.13056   0.00000  Uiso   1.00
F535   F     0.12510   0.08020   0.15920   0.00000  Uiso   1.00
F536   F     0.15030   0.91670   0.13950   0.00000  Uiso   1.00
F537   F     0.20760   0.06590   0.14320   0.00000  Uiso   1.00
F538   F     0.15430   0.11240   0.09580   0.00000  Uiso   1.00
F539   F     0.10890   0.00210   0.10100   0.00000  Uiso   1.00
F540   F     0.18720   0.96620   0.09120   0.00000  Uiso   1.00
Ag541  Ag    0.71789   0.72288   0.85926   0.00000  Uiso   1.00
Co542  Co    0.06843   0.52575   0.88622   0.00000  Uiso   1.00
C543   C     0.01310   0.34520   0.85640   0.00000  Uiso   1.00
H544   H     0.04150   0.30360   0.85660   0.00000  Uiso   1.00
C545   C     0.96590   0.31210   0.84240   0.00000  Uiso   1.00
H546   H     0.95780   0.24690   0.83230   0.00000  Uiso   1.00
C547   C     0.93510   0.39400   0.84660   0.00000  Uiso   1.00
H548   H     0.90150   0.39580   0.83960   0.00000  Uiso   1.00
C549   C     0.96340   0.47870   0.86396   0.00000  Uiso   1.00
C550   C     0.94660   0.57440   0.87472   0.00000  Uiso   1.00
C551   C     0.97630   0.65220   0.89157   0.00000  Uiso   1.00
C552   C     0.96010   0.75360   0.90400   0.00000  Uiso   1.00
H553   H     0.92780   0.77990   0.90240   0.00000  Uiso   1.00
C554   C     0.00090   0.80390   0.91830   0.00000  Uiso   1.00
H555   H     0.00220   0.87160   0.92810   0.00000  Uiso   1.00
C556   C     0.04100   0.73350   0.91550   0.00000  Uiso   1.00
H557   H     0.07360   0.74780   0.92360   0.00000  Uiso   1.00
C558   C     0.89400   0.60110   0.86667   0.00000  Uiso   1.00
C559   C     0.88010   0.67620   0.83890   0.00000  Uiso   1.00
H560   H     0.90400   0.71090   0.82370   0.00000  Uiso   1.00
C561   C     0.83030   0.69840   0.83425   0.00000  Uiso   1.00
H562   H     0.82150   0.74950   0.81570   0.00000  Uiso   1.00
C563   C     0.80760   0.57780   0.88060   0.00000  Uiso   1.00
H564   H     0.78270   0.54380   0.89510   0.00000  Uiso   1.00
C565   C     0.85600   0.54820   0.88760   0.00000  Uiso   1.00
H566   H     0.86350   0.49490   0.90560   0.00000  Uiso   1.00
C567   C     0.55240   0.16140   0.68450   0.00000  Uiso   1.00
H568   H     0.53670   0.21220   0.66910   0.00000  Uiso   1.00
C569   C     0.55880   0.16750   0.72570   0.00000  Uiso   1.00
H570   H     0.54920   0.22210   0.74250   0.00000  Uiso   1.00
C571   C     0.58120   0.07960   0.73680   0.00000  Uiso   1.00
H572   H     0.58920   0.06010   0.76310   0.00000  Uiso   1.00
C573   C     0.59080   0.02130   0.70143   0.00000  Uiso   1.00
C574   C     0.61780   0.93030   0.69853   0.00000  Uiso   1.00
C575   C     0.62890   0.87900   0.66268   0.00000  Uiso   1.00
C576   C     0.66050   0.79210   0.65720   0.00000  Uiso   1.00
H577   H     0.67680   0.75520   0.67750   0.00000  Uiso   1.00
C578   C     0.66270   0.77250   0.61680   0.00000  Uiso   1.00
H579   H     0.68080   0.72050   0.60400   0.00000  Uiso   1.00
C580   C     0.63180   0.84730   0.59846   0.00000  Uiso   1.00
H581   H     0.62590   0.85050   0.57080   0.00000  Uiso   1.00
C582   C     0.63780   0.88330   0.73653   0.00000  Uiso   1.00
C583   C     0.62130   0.78930   0.75030   0.00000  Uiso   1.00
H584   H     0.59600   0.75410   0.73670   0.00000  Uiso   1.00
C585   C     0.64270   0.74650   0.78490   0.00000  Uiso   1.00
H586   H     0.63140   0.68230   0.79410   0.00000  Uiso   1.00
C587   C     0.69390   0.88350   0.79190   0.00000  Uiso   1.00
H588   H     0.71890   0.91760   0.80610   0.00000  Uiso   1.00
C589   C     0.67520   0.93090   0.75790   0.00000  Uiso   1.00
H590   H     0.68780   0.99460   0.74950   0.00000  Uiso   1.00
C591   C     0.65750   0.84580   0.12620   0.00000  Uiso   1.00
H592   H     0.65490   0.84940   0.15420   0.00000  Uiso   1.00
C593   C     0.69270   0.79040   0.10600   0.00000  Uiso   1.00
H594   H     0.71740   0.74940   0.11770   0.00000  Uiso   1.00
C595   C     0.68550   0.80570   0.06550   0.00000  Uiso   1.00
H596   H     0.70400   0.77630   0.04460   0.00000  Uiso   1.00
C597   C     0.64520   0.87380   0.06149   0.00000  Uiso   1.00
C598   C     0.62360   0.91280   0.02643   0.00000  Uiso   1.00
C599   C     0.58580   0.98370   0.02474   0.00000  Uiso   1.00
C600   C     0.56880   0.04190   0.99050   0.00000  Uiso   1.00
H601   H     0.57960   0.03390   0.96400   0.00000  Uiso   1.00
C602   C     0.53420   0.11060   0.00370   0.00000  Uiso   1.00
H603   H     0.51660   0.15820   0.98800   0.00000  Uiso   1.00
C604   C     0.52980   0.09620   0.04582   0.00000  Uiso   1.00
H605   H     0.50840   0.13410   0.06240   0.00000  Uiso   1.00
C606   C     0.64580   0.87610   0.98719   0.00000  Uiso   1.00
C607   C     0.69410   0.89550   0.97690   0.00000  Uiso   1.00
H608   H     0.71440   0.93520   0.99360   0.00000  Uiso   1.00
C609   C     0.71230   0.85520   0.94120   0.00000  Uiso   1.00
H610   H     0.74520   0.86980   0.93400   0.00000  Uiso   1.00
C611   C     0.63830   0.77680   0.92710   0.00000  Uiso   1.00
H612   H     0.61920   0.73420   0.91060   0.00000  Uiso   1.00
C613   C     0.61670   0.81650   0.96145   0.00000  Uiso   1.00
H614   H     0.58330   0.80380   0.96730   0.00000  Uiso   1.00
N615   N     0.01200   0.44310   0.86915   0.00000  Uiso   1.00
N616   N     0.02615   0.64370   0.89971   0.00000  Uiso   1.00
N617   N     0.79335   0.65060   0.85494   0.00000  Uiso   1.00
N618   N     0.57166   0.07340   0.66920   0.00000  Uiso   1.00
N619   N     0.61231   0.91200   0.62484   0.00000  Uiso   1.00
N620   N     0.67890   0.79500   0.80521   0.00000  Uiso   1.00
N621   N     0.62700   0.89480   0.10026   0.00000  Uiso   1.00
N622   N     0.56023   0.02140   0.05876   0.00000  Uiso   1.00
N623   N     0.68480   0.79580   0.91646   0.00000  Uiso   1.00
P624   P     0.66147   0.47307   0.86944   0.00000  Uiso   1.00
F625   F     0.62510   0.41980   0.84080   0.00000  Uiso   1.00
F626   F     0.65030   0.58330   0.86050   0.00000  Uiso   1.00
F627   F     0.70760   0.43410   0.85680   0.00000  Uiso   1.00
F628   F     0.65430   0.38760   0.90420   0.00000  Uiso   1.00
F629   F     0.60890   0.49790   0.89900   0.00000  Uiso   1.00
F630   F     0.68720   0.53380   0.90880   0.00000  Uiso   1.00
Ag631  Ag    0.78211   0.77712   0.35926   0.00000  Uiso   1.00
Co632  Co    0.43157   0.97425   0.38622   0.00000  Uiso   1.00
C633   C     0.48690   0.15480   0.35640   0.00000  Uiso   1.00
H634   H     0.45850   0.19640   0.35660   0.00000  Uiso   1.00
C635   C     0.53410   0.18790   0.34240   0.00000  Uiso   1.00
H636   H     0.54220   0.25310   0.33230   0.00000  Uiso   1.00
C637   C     0.56490   0.10600   0.34660   0.00000  Uiso   1.00
H638   H     0.59850   0.10420   0.33960   0.00000  Uiso   1.00
C639   C     0.53660   0.02130   0.36396   0.00000  Uiso   1.00
C640   C     0.55340   0.92560   0.37472   0.00000  Uiso   1.00
C641   C     0.52370   0.84780   0.39157   0.00000  Uiso   1.00
C642   C     0.53990   0.74640   0.40400   0.00000  Uiso   1.00
H643   H     0.57220   0.72010   0.40240   0.00000  Uiso   1.00
C644   C     0.49910   0.69610   0.41830   0.00000  Uiso   1.00
H645   H     0.49780   0.62840   0.42810   0.00000  Uiso   1.00
C646   C     0.45900   0.76650   0.41550   0.00000  Uiso   1.00
H647   H     0.42640   0.75220   0.42360   0.00000  Uiso   1.00
C648   C     0.60600   0.89890   0.36667   0.00000  Uiso   1.00
C649   C     0.61990   0.82380   0.33890   0.00000  Uiso   1.00
H650   H     0.59600   0.78910   0.32370   0.00000  Uiso   1.00
C651   C     0.66970   0.80160   0.33425   0.00000  Uiso   1.00
H652   H     0.67850   0.75050   0.31570   0.00000  Uiso   1.00
C653   C     0.69240   0.92220   0.38060   0.00000  Uiso   1.00
H654   H     0.71730   0.95620   0.39510   0.00000  Uiso   1.00
C655   C     0.64400   0.95180   0.38760   0.00000  Uiso   1.00
H656   H     0.63650   0.00510   0.40560   0.00000  Uiso   1.00
C657   C     0.94760   0.33860   0.18450   0.00000  Uiso   1.00
H658   H     0.96330   0.28780   0.16910   0.00000  Uiso   1.00
C659   C     0.94120   0.33250   0.22570   0.00000  Uiso   1.00
H660   H     0.95080   0.27790   0.24250   0.00000  Uiso   1.00
C661   C     0.91880   0.42040   0.23680   0.00000  Uiso   1.00
H662   H     0.91080   0.43990   0.26310   0.00000  Uiso   1.00
C663   C     0.90920   0.47870   0.20143   0.00000  Uiso   1.00
C664   C     0.88220   0.56970   0.19853   0.00000  Uiso   1.00
C665   C     0.87110   0.62100   0.16268   0.00000  Uiso   1.00
C666   C     0.83950   0.70790   0.15720   0.00000  Uiso   1.00
H667   H     0.82320   0.74480   0.17750   0.00000  Uiso   1.00
C668   C     0.83730   0.72750   0.11680   0.00000  Uiso   1.00
H669   H     0.81920   0.77950   0.10400   0.00000  Uiso   1.00
C670   C     0.86820   0.65270   0.09846   0.00000  Uiso   1.00
H671   H     0.87410   0.64950   0.07080   0.00000  Uiso   1.00
C672   C     0.86220   0.61670   0.23653   0.00000  Uiso   1.00
C673   C     0.87870   0.71070   0.25030   0.00000  Uiso   1.00
H674   H     0.90400   0.74590   0.23670   0.00000  Uiso   1.00
C675   C     0.85730   0.75350   0.28490   0.00000  Uiso   1.00
H676   H     0.86860   0.81770   0.29410   0.00000  Uiso   1.00
C677   C     0.80610   0.61650   0.29190   0.00000  Uiso   1.00
H678   H     0.78110   0.58240   0.30610   0.00000  Uiso   1.00
C679   C     0.82480   0.56910   0.25790   0.00000  Uiso   1.00
H680   H     0.81220   0.50540   0.24950   0.00000  Uiso   1.00
C681   C     0.84250   0.65420   0.62620   0.00000  Uiso   1.00
H682   H     0.84510   0.65060   0.65420   0.00000  Uiso   1.00
C683   C     0.80730   0.70960   0.60600   0.00000  Uiso   1.00
H684   H     0.78260   0.75060   0.61770   0.00000  Uiso   1.00
C685   C     0.81450   0.69430   0.56550   0.00000  Uiso   1.00
H686   H     0.79600   0.72370   0.54460   0.00000  Uiso   1.00
C687   C     0.85480   0.62620   0.56149   0.00000  Uiso   1.00
C688   C     0.87640   0.58720   0.52643   0.00000  Uiso   1.00
C689   C     0.91420   0.51630   0.52474   0.00000  Uiso   1.00
C690   C     0.93120   0.45810   0.49050   0.00000  Uiso   1.00
H691   H     0.92040   0.46610   0.46400   0.00000  Uiso   1.00
C692   C     0.96580   0.38940   0.50370   0.00000  Uiso   1.00
H693   H     0.98340   0.34180   0.48800   0.00000  Uiso   1.00
C694   C     0.97020   0.40380   0.54582   0.00000  Uiso   1.00
H695   H     0.99160   0.36590   0.56240   0.00000  Uiso   1.00
C696   C     0.85420   0.62390   0.48719   0.00000  Uiso   1.00
C697   C     0.80590   0.60450   0.47690   0.00000  Uiso   1.00
H698   H     0.78560   0.56480   0.49360   0.00000  Uiso   1.00
C699   C     0.78770   0.64480   0.44120   0.00000  Uiso   1.00
H700   H     0.75480   0.63020   0.43400   0.00000  Uiso   1.00
C701   C     0.86170   0.72320   0.42710   0.00000  Uiso   1.00
H702   H     0.88080   0.76580   0.41060   0.00000  Uiso   1.00
C703   C     0.88330   0.68350   0.46145   0.00000  Uiso   1.00
H704   H     0.91670   0.69620   0.46730   0.00000  Uiso   1.00
N705   N     0.48800   0.05690   0.36915   0.00000  Uiso   1.00
N706   N     0.47385   0.85630   0.39971   0.00000  Uiso   1.00
N707   N     0.70665   0.84940   0.35494   0.00000  Uiso   1.00
N708   N     0.92834   0.42660   0.16920   0.00000  Uiso   1.00
N709   N     0.88769   0.58800   0.12484   0.00000  Uiso   1.00
N710   N     0.82110   0.70500   0.30521   0.00000  Uiso   1.00
N711   N     0.87300   0.60520   0.60026   0.00000  Uiso   1.00
N712   N     0.93977   0.47860   0.55876   0.00000  Uiso   1.00
N713   N     0.81520   0.70420   0.41646   0.00000  Uiso   1.00
P714   P     0.83853   0.02693   0.36944   0.00000  Uiso   1.00
F715   F     0.87490   0.08020   0.34080   0.00000  Uiso   1.00
F716   F     0.84970   0.91670   0.36050   0.00000  Uiso   1.00
F717   F     0.79240   0.06590   0.35680   0.00000  Uiso   1.00
F718   F     0.84570   0.11240   0.40420   0.00000  Uiso   1.00
F719   F     0.89110   0.00210   0.39900   0.00000  Uiso   1.00
F720   F     0.81280   0.96620   0.40880   0.00000  Uiso   1.00
loop_
_geom_bond_atom_site_label_1
_geom_bond_atom_site_label_2
_geom_bond_distance
_geom_bond_site_symmetry_2
_ccdc_geom_bond_type
Ag1    N77     2.253   .     S
Ag1    N80     2.295   .     S
Ag1    N83     2.317   .     S
Co2    N75     1.953   .     S
Co2    N76     1.966   .     S
Co2    N351    1.946   .     S
Co2    N352    1.954   .     S
Co2    N528    1.958   .     S
Co2    N529    1.933   .     S
C3     H4      0.940   .     S
C3     N75     1.343   .     D
C3     C5      1.427   1_455 S
C5     H6      0.939   .     S
C5     C7      1.360   .     D
C5     C3      1.427   1_655 S
C7     H8      0.939   .     S
C7     C9      1.462   .     S
C9     C10     1.373   .     D
C9     N75     1.405   1_655 S
C10    C11     1.410   .     S
C10    C18     1.490   .     S
C11    C12     1.451   .     A
C11    N76     1.381   1_655 S
C12    H13     0.940   .     S
C12    C14     1.370   1_655 S
C14    H15     0.940   .     S
C14    C16     1.423   .     A
C14    C12     1.370   1_455 S
C16    H17     0.942   .     S
C16    N76     1.344   .     A
C18    C19     1.400   .     A
C18    C25     1.422   .     A
C19    H20     0.939   .     S
C19    C21     1.387   .     A
C21    H22     0.940   .     S
C21    N77     1.366   .     A
C23    H24     0.941   .     S
C23    C25     1.385   .     A
C23    N77     1.335   .     A
C25    H26     0.941   .     S
C27    H28     0.940   .     S
C27    C29     1.393   .     S
C27    N78     1.358   .     D
C29    H30     0.942   .     S
C29    C31     1.346   .     D
C31    H32     0.942   .     S
C31    C33     1.430   .     S
C33    N78     1.376   .     S
C33    C34     1.394   1_565 S
C34    C35     1.406   .     S
C34    C42     1.512   .     S
C34    C33     1.394   1_545 S
C35    C36     1.429   .     A
C35    N79     1.411   .     A
C36    H37     0.942   .     S
C36    C38     1.378   .     A
C38    H39     0.939   .     S
C38    C40     1.422   .     A
C40    H41     0.941   .     S
C40    N79     1.329   .     A
C42    C43     1.381   .     A
C42    C49     1.386   .     A
C43    H44     0.941   .     S
C43    C45     1.410   .     A
C45    H46     0.941   .     S
C45    N80     1.349   .     A
C47    H48     0.938   .     S
C47    C49     1.390   .     A
C47    N80     1.299   .     A
C49    H50     0.939   .     S
C51    H52     0.941   .     S
C51    C53     1.373   .     S
C51    N81     1.357   .     D
C53    H54     0.941   .     S
C53    C55     1.384   .     D
C55    H56     0.942   .     S
C55    C57     1.411   .     S
C57    C58     1.406   .     D
C57    N81     1.415   .     S
C58    C59     1.378   .     S
C58    C66     1.522   .     S
C59    C60     1.449   1_545 S
C59    N82     1.420   1_545 S
C60    H61     0.940   .     S
C60    C62     1.368   .     A
C60    C59     1.449   1_565 S
C62    H63     0.942   .     S
C62    C64     1.428   .     A
C64    H65     0.942   .     S
C64    N82     1.346   .     A
C66    C67     1.375   .     A
C66    C73     1.401   .     A
C67    H68     0.939   .     S
C67    C69     1.395   .     A
C69    H70     0.942   .     S
C69    N83     1.355   .     A
C71    H72     0.938   .     S
C71    C73     1.390   .     A
C71    N83     1.331   .     A
C73    H74     0.939   .     S
N75    C9      1.405   1_455 S
N76    C11     1.381   1_455 S
N78    Co452   1.958   .     S
N79    Co452   1.933   1_545 S
N81    Co272   1.946   .     S
N82    C59     1.420   1_565 S
N82    Co272   1.954   1_565 D
P84    F85     1.539   .     S
P84    F86     1.495   .     S
P84    F87     1.412   .     S
P84    F88     1.621   .     S
P84    F89     1.763   .     S
P84    F90     1.687   .     S
Ag91   N167    2.253   .     S
Ag91   N170    2.295   .     S
Ag91   N173    2.317   .     S
Co92   N166    1.966   .     S
Co92   N261    1.946   .     S
Co92   N438    1.958   .     S
Co92   N165    1.953   1_545 S
Co92   N262    1.954   1_545 S
Co92   N439    1.933   1_545 A
C93    H94     0.940   .     S
C93    C95     1.427   .     S
C93    N165    1.343   .     D
C95    H96     0.939   .     S
C95    C97     1.360   .     D
C97    H98     0.939   .     S
C97    C99     1.462   .     S
C99    N165    1.405   .     S
C99    C100    1.373   1_565 S
C100   C101    1.410   .     S
C100   C108    1.490   .     S
C100   C99     1.373   1_545 S
C101   C102    1.451   .     A
C101   N166    1.381   .     A
C102   H103    0.940   .     S
C102   C104    1.370   .     A
C104   H105    0.940   .     S
C104   C106    1.423   .     A
C106   H107    0.942   .     S
C106   N166    1.344   .     A
C108   C109    1.400   .     A
C108   C115    1.422   .     A
C109   H110    0.939   .     S
C109   C111    1.387   .     A
C111   H112    0.940   .     S
C111   N167    1.366   .     A
C113   H114    0.941   .     S
C113   C115    1.385   .     A
C113   N167    1.335   .     A
C115   H116    0.941   1_545 A
H116   C115    0.941   1_565 A
C117   H118    0.940   .     S
C117   C119    1.393   .     S
C117   N168    1.358   .     D
C119   H120    0.942   .     S
C119   C121    1.346   .     D
C121   H122    0.942   .     S
C121   C123    1.430   .     S
C123   C124    1.394   .     D
C123   N168    1.376   .     S
C124   C125    1.406   .     S
C124   C132    1.512   .     S
C125   C126    1.429   .     A
C125   N169    1.411   .     A
C126   H127    0.942   .     S
C126   C128    1.378   .     A
C128   H129    0.939   .     S
C128   C130    1.422   .     A
C130   H131    0.941   .     S
C130   N169    1.329   .     A
C132   C133    1.381   .     A
C132   C139    1.386   .     A
C133   H134    0.941   .     S
C133   C135    1.410   .     A
C135   H136    0.941   .     S
C135   N170    1.349   .     A
C137   H138    0.938   .     S
C137   C139    1.390   .     A
C137   N170    1.299   .     A
C139   H140    0.939   .     S
C141   H142    0.941   .     S
C141   C143    1.373   .     S
C141   N171    1.357   .     D
C143   H144    0.941   .     S
C143   C145    1.384   .     D
C145   H146    0.942   .     S
C145   C147    1.411   .     S
C147   C148    1.406   .     D
C147   N171    1.415   .     S
C148   C149    1.378   .     S
C148   C156    1.522   1_554 A
C149   N172    1.420   .     A
C149   C150    1.449   1_554 A
C150   H151    0.940   .     S
C150   C149    1.449   1_556 A
C150   C152    1.368   1_556 S
C152   C154    1.428   .     A
C152   C150    1.368   1_554 S
C152   H153    0.942   1_554 S
H153   C152    0.942   1_556 S
C154   H155    0.942   .     S
C154   N172    1.346   .     A
C156   C157    1.375   .     A
C156   C163    1.401   .     A
C156   C148    1.522   1_556 A
C157   H158    0.939   .     S
C157   C159    1.395   .     A
C159   H160    0.942   .     S
C159   N173    1.355   .     A
C161   H162    0.938   .     S
C161   C163    1.390   .     A
C161   N173    1.331   .     A
C163   H164    0.939   .     S
N165   Co92    1.953   1_565 S
N168   Co362   1.958   .     S
N169   Co362   1.933   .     S
N171   Co182   1.946   .     S
N172   Co182   1.954   .     S
P174   F175    1.539   .     S
P174   F177    1.412   .     S
P174   F178    1.621   .     S
P174   F179    1.763   .     S
P174   F176    1.495   1_565 A
P174   F180    1.687   1_565 S
F176   P174    1.495   1_545 A
F180   P174    1.687   1_545 S
Ag181  N257    2.253   .     S
Ag181  N260    2.295   .     S
Ag181  N263    2.317   .     S
Co182  N255    1.953   .     S
Co182  N256    1.966   .     S
Co182  N708    1.958   .     S
Co182  N709    1.933   .     S
C183   H184    0.940   .     S
C183   N255    1.343   .     D
C183   C185    1.427   1_655 D
C185   H186    0.939   .     S
C185   C187    1.360   .     D
C185   C183    1.427   1_455 D
C187   H188    0.939   .     S
C187   C189    1.462   .     S
C189   C190    1.373   .     D
C189   N255    1.405   1_455 D
C190   C191    1.410   .     S
C190   C198    1.490   .     S
C191   C192    1.451   .     A
C191   N256    1.381   1_455 S
C192   H193    0.940   .     S
C192   C194    1.370   1_455 S
C194   H195    0.940   .     S
C194   C196    1.423   .     A
C194   C192    1.370   1_655 S
C196   H197    0.942   .     S
C196   N256    1.344   .     A
C198   C199    1.400   .     A
C198   C205    1.422   .     A
C199   H200    0.939   .     S
C199   C201    1.387   .     A
C201   H202    0.940   .     S
C201   N257    1.366   .     A
C203   H204    0.941   .     S
C203   C205    1.385   .     A
C203   N257    1.335   .     A
C205   H206    0.941   .     S
C207   H208    0.940   .     S
C207   C209    1.393   .     S
C207   N258    1.358   .     D
C209   H210    0.942   .     S
C209   C211    1.346   .     D
C211   H212    0.942   .     S
C211   C213    1.430   .     S
C213   N258    1.376   .     S
C213   C214    1.394   1_565 S
C214   C215    1.406   .     S
C214   C222    1.512   .     S
C214   C213    1.394   1_545 S
C215   C216    1.429   .     A
C215   N259    1.411   .     A
C216   H217    0.942   .     S
C216   C218    1.378   .     A
C218   H219    0.939   .     S
C218   C220    1.422   .     A
C220   H221    0.941   .     S
C220   N259    1.329   .     A
C222   C223    1.381   .     A
C222   C229    1.386   .     A
C223   H224    0.941   .     S
C223   C225    1.410   .     A
C225   H226    0.941   .     S
C225   N260    1.349   .     A
C227   H228    0.938   .     S
C227   C229    1.390   .     A
C227   N260    1.299   .     A
C229   H230    0.939   .     S
C231   H232    0.941   .     S
C231   C233    1.373   .     S
C231   N261    1.357   .     D
C233   H234    0.941   .     S
C233   C235    1.384   .     D
C235   H236    0.942   .     S
C235   C237    1.411   .     S
C237   C238    1.406   .     D
C237   N261    1.415   .     S
C238   C239    1.378   .     S
C238   C246    1.522   1_556 A
C239   C240    1.449   1_546 A
C239   N262    1.420   1_545 S
C240   H241    0.940   .     S
C240   C239    1.449   1_564 A
C240   C242    1.368   1_554 S
C242   C244    1.428   .     A
C242   C240    1.368   1_556 S
C242   H243    0.942   1_556 S
H243   C242    0.942   1_554 S
C244   H245    0.942   .     S
C244   N262    1.346   .     A
C246   C247    1.375   .     A
C246   C253    1.401   .     A
C246   C238    1.522   1_554 A
C247   H248    0.939   .     S
C247   C249    1.395   .     A
C249   H250    0.942   .     S
C249   N263    1.355   .     A
C251   H252    0.938   .     S
C251   C253    1.390   .     A
C251   N263    1.331   .     A
C253   H254    0.939   .     S
N255   C189    1.405   1_655 D
N256   C191    1.381   1_655 S
N258   Co632   1.958   .     S
N259   Co632   1.933   1_545 A
N262   Co92    1.954   1_565 S
N262   C239    1.420   1_565 S
P264   F265    1.539   .     S
P264   F266    1.495   .     S
P264   F267    1.412   .     S
P264   F268    1.621   .     S
P264   F269    1.763   .     S
P264   F270    1.687   .     S
Ag271  N347    2.253   .     S
Ag271  N350    2.295   .     S
Ag271  N353    2.317   .     S
Co272  N346    1.966   .     S
Co272  N618    1.958   .     S
Co272  N82     1.954   1_545 D
Co272  N345    1.953   1_545 A
Co272  N619    1.933   1_545 A
C273   H274    0.940   .     S
C273   C275    1.427   .     S
C273   N345    1.343   .     D
C275   H276    0.939   .     S
C275   C277    1.360   .     D
C277   H278    0.939   .     S
C277   C279    1.462   .     S
C279   N345    1.405   .     S
C279   C280    1.373   1_565 S
C280   C281    1.410   .     S
C280   C288    1.490   .     S
C280   C279    1.373   1_545 S
C281   C282    1.451   .     A
C281   N346    1.381   .     A
C282   H283    0.940   .     S
C282   C284    1.370   .     A
C284   H285    0.940   .     S
C284   C286    1.423   .     A
C286   H287    0.942   .     S
C286   N346    1.344   .     A
C288   C289    1.400   .     A
C288   C295    1.422   .     A
C289   H290    0.939   .     S
C289   C291    1.387   .     A
C291   H292    0.940   .     S
C291   N347    1.366   .     A
C293   H294    0.941   .     S
C293   C295    1.385   .     A
C293   N347    1.335   .     A
C295   H296    0.941   1_545 S
H296   C295    0.941   1_565 S
C297   H298    0.940   .     S
C297   C299    1.393   .     S
C297   N348    1.358   .     D
C299   H300    0.942   .     S
C299   C301    1.346   .     D
C301   H302    0.942   .     S
C301   C303    1.430   .     S
C303   C304    1.394   .     D
C303   N348    1.376   .     S
C304   C305    1.406   .     S
C304   C312    1.512   .     S
C305   C306    1.429   .     A
C305   N349    1.411   .     A
C306   H307    0.942   .     S
C306   C308    1.378   .     A
C308   H309    0.939   .     S
C308   C310    1.422   .     A
C310   H311    0.941   .     S
C310   N349    1.329   .     A
C312   C313    1.381   .     A
C312   C319    1.386   .     A
C313   H314    0.941   .     S
C313   C315    1.410   .     A
C315   H316    0.941   .     S
C315   N350    1.349   .     A
C317   H318    0.938   .     S
C317   C319    1.390   .     A
C317   N350    1.299   .     A
C319   H320    0.939   .     S
C321   H322    0.941   .     S
C321   C323    1.373   .     S
C321   N351    1.357   .     D
C323   H324    0.941   .     S
C323   C325    1.384   .     D
C325   H326    0.942   .     S
C325   C327    1.411   .     S
C327   C328    1.406   .     D
C327   N351    1.415   .     S
C328   C329    1.378   .     S
C328   C336    1.522   .     S
C329   C330    1.449   .     A
C329   N352    1.420   .     A
C330   H331    0.940   .     S
C330   C332    1.368   .     A
C332   H333    0.942   .     S
C332   C334    1.428   .     A
C334   H335    0.942   .     S
C334   N352    1.346   .     A
C336   C337    1.375   .     A
C336   C343    1.401   .     A
C337   H338    0.939   .     S
C337   C339    1.395   .     A
C339   H340    0.942   .     S
C339   N353    1.355   .     A
C341   H342    0.938   .     S
C341   C343    1.390   .     A
C341   N353    1.331   .     A
C343   H344    0.939   .     S
N345   Co272   1.953   1_565 A
N348   Co542   1.958   .     S
N349   Co542   1.933   .     S
P354   F355    1.539   .     S
P354   F357    1.412   .     S
P354   F358    1.621   .     S
P354   F359    1.763   .     S
P354   F356    1.495   1_565 D
P354   F360    1.687   1_565 S
F356   P354    1.495   1_545 D
F360   P354    1.687   1_545 S
Ag361  N437    2.253   .     S
Ag361  N440    2.295   .     S
Ag361  N443    2.317   .     S
Co362  N435    1.953   .     S
Co362  N436    1.966   .     S
Co362  N711    1.946   .     S
Co362  N712    1.954   .     S
C363   H364    0.940   .     S
C363   N435    1.343   .     D
C363   C365    1.427   1_655 S
C365   H366    0.939   .     S
C365   C367    1.360   .     D
C365   C363    1.427   1_455 S
C367   H368    0.939   .     S
C367   C369    1.462   .     S
C369   C370    1.373   .     D
C369   N435    1.405   1_455 S
C370   C371    1.410   .     S
C370   C378    1.490   .     S
C371   C372    1.451   .     A
C371   N436    1.381   1_455 S
C372   H373    0.940   .     S
C372   C374    1.370   1_455 A
C374   H375    0.940   .     S
C374   C376    1.423   .     A
C374   C372    1.370   1_655 A
C376   H377    0.942   .     S
C376   N436    1.344   .     A
C378   C379    1.400   .     A
C378   C385    1.422   .     A
C379   H380    0.939   .     S
C379   C381    1.387   .     A
C381   H382    0.940   .     S
C381   N437    1.366   .     A
C383   H384    0.941   .     S
C383   C385    1.385   .     A
C383   N437    1.335   .     A
C385   H386    0.941   .     S
C387   H388    0.940   .     S
C387   C389    1.393   .     S
C387   N438    1.358   .     D
C389   H390    0.942   .     S
C389   C391    1.346   .     D
C391   H392    0.942   .     S
C391   C393    1.430   .     S
C393   N438    1.376   .     S
C393   C394    1.394   1_545 A
C394   C395    1.406   .     S
C394   C402    1.512   .     S
C394   C393    1.394   1_565 A
C395   C396    1.429   .     A
C395   N439    1.411   .     A
C396   H397    0.942   .     S
C396   C398    1.378   .     A
C398   H399    0.939   .     S
C398   C400    1.422   .     A
C400   H401    0.941   .     S
C400   N439    1.329   .     A
C402   C403    1.381   .     A
C402   C409    1.386   .     A
C403   H404    0.941   .     S
C403   C405    1.410   .     A
C405   H406    0.941   .     S
C405   N440    1.349   .     A
C407   H408    0.938   .     S
C407   C409    1.390   .     A
C407   N440    1.299   .     A
C409   H410    0.939   .     S
C411   H412    0.941   .     S
C411   C413    1.373   .     S
C411   N441    1.357   .     D
C413   H414    0.941   .     S
C413   C415    1.384   .     D
C415   H416    0.942   .     S
C415   C417    1.411   .     S
C417   C418    1.406   .     D
C417   N441    1.415   .     S
C418   C419    1.378   .     S
C418   C426    1.522   .     S
C419   C420    1.449   1_565 A
C419   N442    1.420   1_565 A
C420   H421    0.940   .     S
C420   C422    1.368   .     A
C420   C419    1.449   1_545 A
C422   H423    0.942   .     S
C422   C424    1.428   .     A
C424   H425    0.942   .     S
C424   N442    1.346   .     A
C426   C427    1.375   .     A
C426   C433    1.401   .     A
C427   H428    0.939   .     S
C427   C429    1.395   .     A
C429   H430    0.942   .     S
C429   N443    1.355   .     A
C431   H432    0.938   .     S
C431   C433    1.390   .     A
C431   N443    1.331   .     A
C433   H434    0.939   .     S
N435   C369    1.405   1_655 S
N436   C371    1.381   1_655 S
N439   Co92    1.933   1_565 A
N441   Co632   1.946   .     S
N442   C419    1.420   1_545 A
N442   Co632   1.954   1_545 S
P444   F445    1.539   .     S
P444   F446    1.495   .     S
P444   F447    1.412   .     S
P444   F448    1.621   .     S
P444   F449    1.763   .     S
P444   F450    1.687   .     S
Ag451  N527    2.253   .     S
Ag451  N530    2.295   .     S
Ag451  N533    2.317   .     S
Co452  N526    1.966   .     S
Co452  N621    1.946   .     S
Co452  N79     1.933   1_565 S
Co452  N525    1.953   1_565 A
Co452  N622    1.954   1_565 S
C453   H454    0.940   .     S
C453   C455    1.427   .     S
C453   N525    1.343   .     D
C455   H456    0.939   .     S
C455   C457    1.360   .     D
C457   H458    0.939   .     S
C457   C459    1.462   .     S
C459   N525    1.405   .     S
C459   C460    1.373   1_545 S
C460   C461    1.410   .     S
C460   C468    1.490   .     S
C460   C459    1.373   1_565 S
C461   C462    1.451   .     A
C461   N526    1.381   .     A
C462   H463    0.940   .     S
C462   C464    1.370   .     A
C464   H465    0.940   .     S
C464   C466    1.423   .     A
C466   H467    0.942   .     S
C466   N526    1.344   .     A
C468   C469    1.400   .     A
C468   C475    1.422   .     A
C469   H470    0.939   .     S
C469   C471    1.387   .     A
C471   H472    0.940   .     S
C471   N527    1.366   .     A
C473   H474    0.941   .     S
C473   C475    1.385   .     A
C473   N527    1.335   .     A
C475   H476    0.941   1_565 S
H476   C475    0.941   1_545 S
C477   H478    0.940   .     S
C477   C479    1.393   .     S
C477   N528    1.358   .     D
C479   H480    0.942   .     S
C479   C481    1.346   .     D
C481   H482    0.942   .     S
C481   C483    1.430   .     S
C483   C484    1.394   .     D
C483   N528    1.376   .     S
C484   C485    1.406   .     S
C484   C492    1.512   .     S
C485   C486    1.429   .     A
C485   N529    1.411   .     A
C486   H487    0.942   .     S
C486   C488    1.378   .     A
C488   H489    0.939   .     S
C488   C490    1.422   .     A
C490   H491    0.941   .     S
C490   N529    1.329   .     A
C492   C493    1.381   .     A
C492   C499    1.386   .     A
C493   H494    0.941   .     S
C493   C495    1.410   .     A
C495   H496    0.941   .     S
C495   N530    1.349   .     A
C497   H498    0.938   .     S
C497   C499    1.390   .     A
C497   N530    1.299   .     A
C499   H500    0.939   .     S
C501   H502    0.941   .     S
C501   C503    1.373   .     S
C501   N531    1.357   .     D
C503   H504    0.941   .     S
C503   C505    1.384   .     D
C505   H506    0.942   .     S
C505   C507    1.411   .     S
C507   C508    1.406   .     D
C507   N531    1.415   .     S
C508   C509    1.378   .     S
C508   C516    1.522   1_556 S
C509   N532    1.420   .     A
C509   C510    1.449   1_556 S
C510   H511    0.940   .     S
C510   C509    1.449   1_554 S
C510   C512    1.368   1_554 S
C512   C514    1.428   .     A
C512   C510    1.368   1_556 S
C512   H513    0.942   1_556 S
H513   C512    0.942   1_554 S
C514   H515    0.942   .     S
C514   N532    1.346   .     A
C516   C517    1.375   .     A
C516   C523    1.401   .     A
C516   C508    1.522   1_554 S
C517   H518    0.939   .     S
C517   C519    1.395   .     A
C519   H520    0.942   .     S
C519   N533    1.355   .     A
C521   H522    0.938   .     S
C521   C523    1.390   .     A
C521   N533    1.331   .     A
C523   H524    0.939   .     S
N525   Co452   1.953   1_545 A
N531   Co542   1.946   .     S
N532   Co542   1.954   .     S
P534   F535    1.539   .     S
P534   F537    1.412   .     S
P534   F538    1.621   .     S
P534   F539    1.763   .     S
P534   F536    1.495   1_545 S
P534   F540    1.687   1_545 S
F536   P534    1.495   1_565 S
F540   P534    1.687   1_565 S
Ag541  N617    2.253   .     S
Ag541  N620    2.295   .     S
Ag541  N623    2.317   .     S
Co542  N615    1.953   .     S
Co542  N616    1.966   .     S
C543   H544    0.940   .     S
C543   N615    1.343   .     D
C543   C545    1.427   1_455 S
C545   H546    0.939   .     S
C545   C547    1.360   .     D
C545   C543    1.427   1_655 S
C547   H548    0.939   .     S
C547   C549    1.462   .     S
C549   C550    1.373   .     D
C549   N615    1.405   1_655 S
C550   C551    1.410   .     S
C550   C558    1.490   .     S
C551   C552    1.451   .     A
C551   N616    1.381   1_655 S
C552   H553    0.940   .     S
C552   C554    1.370   1_655 S
C554   H555    0.940   .     S
C554   C556    1.423   .     A
C554   C552    1.370   1_455 S
C556   H557    0.942   .     S
C556   N616    1.344   .     A
C558   C559    1.400   .     A
C558   C565    1.422   .     A
C559   H560    0.939   .     S
C559   C561    1.387   .     A
C561   H562    0.940   .     S
C561   N617    1.366   .     A
C563   H564    0.941   .     S
C563   C565    1.385   .     A
C563   N617    1.335   .     A
C565   H566    0.941   .     S
C567   H568    0.940   .     S
C567   C569    1.393   .     S
C567   N618    1.358   .     D
C569   H570    0.942   .     S
C569   C571    1.346   .     D
C571   H572    0.942   .     S
C571   C573    1.430   .     S
C573   N618    1.376   .     S
C573   C574    1.394   1_545 S
C574   C575    1.406   .     S
C574   C582    1.512   .     S
C574   C573    1.394   1_565 S
C575   C576    1.429   .     A
C575   N619    1.411   .     A
C576   H577    0.942   .     S
C576   C578    1.378   .     A
C578   H579    0.939   .     S
C578   C580    1.422   .     A
C580   H581    0.941   .     S
C580   N619    1.329   .     A
C582   C583    1.381   .     A
C582   C589    1.386   .     A
C583   H584    0.941   .     S
C583   C585    1.410   .     A
C585   H586    0.941   .     S
C585   N620    1.349   .     A
C587   H588    0.938   .     S
C587   C589    1.390   .     A
C587   N620    1.299   .     A
C589   H590    0.939   .     S
C591   H592    0.941   .     S
C591   C593    1.373   .     S
C591   N621    1.357   .     D
C593   H594    0.941   .     S
C593   C595    1.384   .     D
C595   H596    0.942   .     S
C595   C597    1.411   .     S
C597   C598    1.406   .     D
C597   N621    1.415   .     S
C598   C599    1.378   .     S
C598   C606    1.522   1_554 A
C599   C600    1.449   1_564 S
C599   N622    1.420   1_565 A
C600   H601    0.940   .     S
C600   C599    1.449   1_546 S
C600   C602    1.368   1_556 A
C602   C604    1.428   .     A
C602   C600    1.368   1_554 A
C602   H603    0.942   1_554 A
H603   C602    0.942   1_556 A
C604   H605    0.942   .     S
C604   N622    1.346   .     A
C606   C607    1.375   .     A
C606   C613    1.401   .     A
C606   C598    1.522   1_556 A
C607   H608    0.939   .     S
C607   C609    1.395   .     A
C609   H610    0.942   .     S
C609   N623    1.355   .     A
C611   H612    0.938   .     S
C611   C613    1.390   .     A
C611   N623    1.331   .     A
C613   H614    0.939   .     S
N615   C549    1.405   1_455 S
N616   C551    1.381   1_455 S
N619   Co272   1.933   1_565 A
N622   Co452   1.954   1_545 S
N622   C599    1.420   1_545 A
P624   F625    1.539   .     S
P624   F626    1.495   .     S
P624   F627    1.412   .     S
P624   F628    1.621   .     S
P624   F629    1.763   .     S
P624   F630    1.687   .     S
Ag631  N707    2.253   .     S
Ag631  N710    2.295   .     S
Ag631  N713    2.317   .     S
Co632  N706    1.966   .     S
Co632  N259    1.933   1_565 A
Co632  N442    1.954   1_565 S
Co632  N705    1.953   1_565 S
C633   H634    0.940   .     S
C633   C635    1.427   .     S
C633   N705    1.343   .     D
C635   H636    0.939   .     S
C635   C637    1.360   .     D
C637   H638    0.939   .     S
C637   C639    1.462   .     S
C639   N705    1.405   .     S
C639   C640    1.373   1_545 S
C640   C641    1.410   .     S
C640   C648    1.490   .     S
C640   C639    1.373   1_565 S
C641   C642    1.451   .     A
C641   N706    1.381   .     A
C642   H643    0.940   .     S
C642   C644    1.370   .     A
C644   H645    0.940   .     S
C644   C646    1.423   .     A
C646   H647    0.942   .     S
C646   N706    1.344   .     A
C648   C649    1.400   .     A
C648   C655    1.422   .     A
C649   H650    0.939   .     S
C649   C651    1.387   .     A
C651   H652    0.940   .     S
C651   N707    1.366   .     A
C653   H654    0.941   .     S
C653   C655    1.385   .     A
C653   N707    1.335   .     A
C655   H656    0.941   1_565 S
H656   C655    0.941   1_545 S
C657   H658    0.940   .     S
C657   C659    1.393   .     S
C657   N708    1.358   .     D
C659   H660    0.942   .     S
C659   C661    1.346   .     D
C661   H662    0.942   .     S
C661   C663    1.430   .     S
C663   C664    1.394   .     D
C663   N708    1.376   .     S
C664   C665    1.406   .     S
C664   C672    1.512   .     S
C665   C666    1.429   .     A
C665   N709    1.411   .     A
C666   H667    0.942   .     S
C666   C668    1.378   .     A
C668   H669    0.939   .     S
C668   C670    1.422   .     A
C670   H671    0.941   .     S
C670   N709    1.329   .     A
C672   C673    1.381   .     A
C672   C679    1.386   .     A
C673   H674    0.941   .     S
C673   C675    1.410   .     A
C675   H676    0.941   .     S
C675   N710    1.349   .     A
C677   H678    0.938   .     S
C677   C679    1.390   .     A
C677   N710    1.299   .     A
C679   H680    0.939   .     S
C681   H682    0.941   .     S
C681   C683    1.373   .     S
C681   N711    1.357   .     D
C683   H684    0.941   .     S
C683   C685    1.384   .     D
C685   H686    0.942   .     S
C685   C687    1.411   .     S
C687   C688    1.406   .     D
C687   N711    1.415   .     S
C688   C689    1.378   .     S
C688   C696    1.522   .     S
C689   C690    1.449   .     A
C689   N712    1.420   .     A
C690   H691    0.940   .     S
C690   C692    1.368   .     A
C692   H693    0.942   .     S
C692   C694    1.428   .     A
C694   H695    0.942   .     S
C694   N712    1.346   .     A
C696   C697    1.375   .     A
C696   C703    1.401   .     A
C697   H698    0.939   .     S
C697   C699    1.395   .     A
C699   H700    0.942   .     S
C699   N713    1.355   .     A
C701   H702    0.938   .     S
C701   C703    1.390   .     A
C701   N713    1.331   .     A
C703   H704    0.939   .     S
N705   Co632   1.953   1_545 S
P714   F715    1.539   .     S
P714   F717    1.412   .     S
P714   F718    1.621   .     S
P714   F719    1.763   .     S
P714   F716    1.495   1_545 S
P714   F720    1.687   1_545 D
F716   P714    1.495   1_565 S
F720   P714    1.687   1_565 D
