data_LELCUB01_clean
_audit_creation_date              2014-07-02
_audit_creation_method            'Materials Studio'
_symmetry_space_group_name_H-M    'P1'
_symmetry_Int_Tables_number       1
_symmetry_cell_setting            triclinic
loop_
_symmetry_equiv_pos_as_xyz
  x,y,z
_cell_length_a                    18.5370
_cell_length_b                    24.8952
_cell_length_c                    34.9250
_cell_angle_alpha                 90.0000
_cell_angle_beta                  90.0000
_cell_angle_gamma                 111.8580
loop_
_atom_site_label
_atom_site_type_symbol
_atom_site_fract_x
_atom_site_fract_y
_atom_site_fract_z
_atom_site_U_iso_or_equiv
_atom_site_adp_type
_atom_site_occupancy
Cu1    Cu    0.42263   0.91564   0.95519   0.01267  Uiso   1.00
Cu2    Cu    0.46220   0.95246   0.04384   0.01267  Uiso   1.00
Cu3    Cu    0.53080   0.86690   0.00039   0.01267  Uiso   1.00
Cu4    Cu    0.54572   0.69450   0.77229   0.01267  Uiso   1.00
Cu5    Cu    0.51429   0.69484   0.22002   0.01267  Uiso   1.00
Cu6    Cu    0.68336   0.81570   0.75703   0.01267  Uiso   1.00
Cu7    Cu    0.07737   0.08436   0.95519   0.01267  Uiso   1.00
Cu8    Cu    0.03780   0.04754   0.04384   0.01267  Uiso   1.00
Cu9    Cu    0.96920   0.13310   0.00039   0.01267  Uiso   1.00
Cu10   Cu    0.95428   0.30550   0.77229   0.01267  Uiso   1.00
Cu11   Cu    0.98571   0.30516   0.22002   0.01267  Uiso   1.00
Cu12   Cu    0.81664   0.18430   0.75703   0.01267  Uiso   1.00
Cu13   Cu    0.49301   0.91564   0.54481   0.01267  Uiso   1.00
Cu14   Cu    0.49026   0.95246   0.45616   0.01267  Uiso   1.00
Cu15   Cu    0.33610   0.86690   0.49961   0.01267  Uiso   1.00
Cu16   Cu    0.14878   0.69450   0.72771   0.01267  Uiso   1.00
Cu17   Cu    0.18055   0.69484   0.27998   0.01267  Uiso   1.00
Cu18   Cu    0.13234   0.81570   0.74297   0.01267  Uiso   1.00
Cu19   Cu    0.00699   0.08436   0.54481   0.01267  Uiso   1.00
Cu20   Cu    0.00974   0.04754   0.45616   0.01267  Uiso   1.00
Cu21   Cu    0.16390   0.13310   0.49961   0.01267  Uiso   1.00
Cu22   Cu    0.35122   0.30550   0.72771   0.01267  Uiso   1.00
Cu23   Cu    0.31945   0.30516   0.27998   0.01267  Uiso   1.00
Cu24   Cu    0.36766   0.18430   0.74297   0.01267  Uiso   1.00
Cu25   Cu    0.57737   0.08436   0.04481   0.01267  Uiso   1.00
Cu26   Cu    0.53780   0.04754   0.95616   0.01267  Uiso   1.00
Cu27   Cu    0.46920   0.13310   0.99961   0.01267  Uiso   1.00
Cu28   Cu    0.45428   0.30550   0.22771   0.01267  Uiso   1.00
Cu29   Cu    0.48571   0.30516   0.77998   0.01267  Uiso   1.00
Cu30   Cu    0.31664   0.18430   0.24297   0.01267  Uiso   1.00
Cu31   Cu    0.92263   0.91564   0.04481   0.01267  Uiso   1.00
Cu32   Cu    0.96220   0.95246   0.95616   0.01267  Uiso   1.00
Cu33   Cu    0.03080   0.86690   0.99961   0.01267  Uiso   1.00
Cu34   Cu    0.04572   0.69450   0.22771   0.01267  Uiso   1.00
Cu35   Cu    0.01429   0.69484   0.77998   0.01267  Uiso   1.00
Cu36   Cu    0.18336   0.81570   0.24297   0.01267  Uiso   1.00
Cu37   Cu    0.50699   0.08436   0.45519   0.01267  Uiso   1.00
Cu38   Cu    0.50974   0.04754   0.54384   0.01267  Uiso   1.00
Cu39   Cu    0.66390   0.13310   0.50039   0.01267  Uiso   1.00
Cu40   Cu    0.85122   0.30550   0.27229   0.01267  Uiso   1.00
Cu41   Cu    0.81945   0.30516   0.72002   0.01267  Uiso   1.00
Cu42   Cu    0.86766   0.18430   0.25703   0.01267  Uiso   1.00
Cu43   Cu    0.99301   0.91564   0.45519   0.01267  Uiso   1.00
Cu44   Cu    0.99026   0.95246   0.54384   0.01267  Uiso   1.00
Cu45   Cu    0.83610   0.86690   0.50039   0.01267  Uiso   1.00
Cu46   Cu    0.64878   0.69450   0.27229   0.01267  Uiso   1.00
Cu47   Cu    0.68055   0.69484   0.72002   0.01267  Uiso   1.00
Cu48   Cu    0.63234   0.81570   0.25703   0.01267  Uiso   1.00
H1     H     0.26810   0.90200   0.92850   0.01267  Uiso   1.00
H2     H     0.21130   0.93640   0.93490   0.01267  Uiso   1.00
H3     H     0.29310   0.96740   0.91390   0.01267  Uiso   1.00
H4     H     0.39100   0.01900   0.08240   0.01267  Uiso   1.00
H5     H     0.35040   0.06200   0.06800   0.01267  Uiso   1.00
H6     H     0.29850   0.99940   0.08450   0.01267  Uiso   1.00
H7     H     0.45620   0.95540   0.12470   0.01267  Uiso   1.00
H8     H     0.46720   0.91660   0.15900   0.01267  Uiso   1.00
H9     H     0.53840   0.97340   0.14590   0.01267  Uiso   1.00
H10    H     0.62460   0.81240   0.04750   0.01267  Uiso   1.00
H11    H     0.61040   0.78680   0.09010   0.01267  Uiso   1.00
H12    H     0.54290   0.76320   0.05880   0.01267  Uiso   1.00
H13    H     0.41100   0.70340   0.15490   0.01267  Uiso   1.00
H14    H     0.43750   0.74140   0.11680   0.01267  Uiso   1.00
H15    H     0.48260   0.70100   0.13020   0.01267  Uiso   1.00
H16    H     0.67680   0.92240   0.21270   0.01267  Uiso   1.00
H17    H     0.66780   0.93700   0.16880   0.01267  Uiso   1.00
H18    H     0.60670   0.94120   0.19990   0.01267  Uiso   1.00
H19    H     0.69530   0.58540   0.69530   0.01267  Uiso   1.00
H20    H     0.63630   0.51940   0.69310   0.01267  Uiso   1.00
H21    H     0.69410   0.54120   0.72880   0.01267  Uiso   1.00
H22    H     0.43260   0.58240   0.80500   0.01267  Uiso   1.00
H23    H     0.40570   0.51620   0.79190   0.01267  Uiso   1.00
H24    H     0.38620   0.56160   0.76570   0.01267  Uiso   1.00
H25    H     0.42850   0.68200   0.82620   0.01267  Uiso   1.00
H26    H     0.39720   0.72840   0.84410   0.01267  Uiso   1.00
H27    H     0.44620   0.70120   0.87000   0.01267  Uiso   1.00
H28    H     0.70400   0.91640   0.80870   0.01267  Uiso   1.00
H29    H     0.71240   0.90200   0.85280   0.01267  Uiso   1.00
H30    H     0.65090   0.93000   0.84050   0.01267  Uiso   1.00
H31    H     0.40800   0.90660   0.87260   0.01267  Uiso   1.00
H32    H     0.39290   0.84740   0.85010   0.01267  Uiso   1.00
H33    H     0.46830   0.90340   0.84080   0.01267  Uiso   1.00
H34    H     0.59100   0.78380   0.96160   0.01267  Uiso   1.00
H35    H     0.65940   0.83060   0.93760   0.01267  Uiso   1.00
H36    H     0.60560   0.77100   0.91800   0.01267  Uiso   1.00
H37    H     0.23190   0.09800   0.92850   0.01267  Uiso   1.00
H38    H     0.28870   0.06360   0.93490   0.01267  Uiso   1.00
H39    H     0.20690   0.03260   0.91390   0.01267  Uiso   1.00
H40    H     0.10900   0.98100   0.08240   0.01267  Uiso   1.00
H41    H     0.14960   0.93800   0.06800   0.01267  Uiso   1.00
H42    H     0.20150   0.00060   0.08450   0.01267  Uiso   1.00
H43    H     0.04380   0.04460   0.12470   0.01267  Uiso   1.00
H44    H     0.03280   0.08340   0.15900   0.01267  Uiso   1.00
H45    H     0.96160   0.02660   0.14590   0.01267  Uiso   1.00
H46    H     0.87540   0.18760   0.04750   0.01267  Uiso   1.00
H47    H     0.88960   0.21320   0.09010   0.01267  Uiso   1.00
H48    H     0.95710   0.23680   0.05880   0.01267  Uiso   1.00
H49    H     0.08900   0.29660   0.15490   0.01267  Uiso   1.00
H50    H     0.06250   0.25860   0.11680   0.01267  Uiso   1.00
H51    H     0.01740   0.29900   0.13020   0.01267  Uiso   1.00
H52    H     0.82320   0.07760   0.21270   0.01267  Uiso   1.00
H53    H     0.83220   0.06300   0.16880   0.01267  Uiso   1.00
H54    H     0.89330   0.05880   0.19990   0.01267  Uiso   1.00
H55    H     0.80470   0.41460   0.69530   0.01267  Uiso   1.00
H56    H     0.86370   0.48060   0.69310   0.01267  Uiso   1.00
H57    H     0.80590   0.45880   0.72880   0.01267  Uiso   1.00
H58    H     0.06740   0.41760   0.80500   0.01267  Uiso   1.00
H59    H     0.09430   0.48380   0.79190   0.01267  Uiso   1.00
H60    H     0.11380   0.43840   0.76570   0.01267  Uiso   1.00
H61    H     0.07150   0.31800   0.82620   0.01267  Uiso   1.00
H62    H     0.10280   0.27160   0.84410   0.01267  Uiso   1.00
H63    H     0.05380   0.29880   0.87000   0.01267  Uiso   1.00
H64    H     0.79600   0.08360   0.80870   0.01267  Uiso   1.00
H65    H     0.78760   0.09800   0.85280   0.01267  Uiso   1.00
H66    H     0.84910   0.07000   0.84050   0.01267  Uiso   1.00
H67    H     0.09200   0.09340   0.87260   0.01267  Uiso   1.00
H68    H     0.10710   0.15260   0.85010   0.01267  Uiso   1.00
H69    H     0.03170   0.09660   0.84080   0.01267  Uiso   1.00
H70    H     0.90900   0.21620   0.96160   0.01267  Uiso   1.00
H71    H     0.84060   0.16940   0.93760   0.01267  Uiso   1.00
H72    H     0.89440   0.22900   0.91800   0.01267  Uiso   1.00
H73    H     0.63390   0.90200   0.57150   0.01267  Uiso   1.00
H74    H     0.72510   0.93640   0.56510   0.01267  Uiso   1.00
H75    H     0.67430   0.96740   0.58610   0.01267  Uiso   1.00
H76    H     0.62800   0.01900   0.41760   0.01267  Uiso   1.00
H77    H     0.71160   0.06200   0.43200   0.01267  Uiso   1.00
H78    H     0.70090   0.99940   0.41550   0.01267  Uiso   1.00
H79    H     0.49920   0.95540   0.37530   0.01267  Uiso   1.00
H80    H     0.44940   0.91660   0.34100   0.01267  Uiso   1.00
H81    H     0.43500   0.97340   0.35410   0.01267  Uiso   1.00
H82    H     0.18780   0.81240   0.45250   0.01267  Uiso   1.00
H83    H     0.17640   0.78680   0.40990   0.01267  Uiso   1.00
H84    H     0.22030   0.76320   0.44120   0.01267  Uiso   1.00
H85    H     0.29240   0.70340   0.34510   0.01267  Uiso   1.00
H86    H     0.30390   0.74140   0.38320   0.01267  Uiso   1.00
H87    H     0.21840   0.70100   0.36980   0.01267  Uiso   1.00
H88    H     0.24560   0.92240   0.28730   0.01267  Uiso   1.00
H89    H     0.26920   0.93700   0.33120   0.01267  Uiso   1.00
H90    H     0.33450   0.94120   0.30010   0.01267  Uiso   1.00
H91    H     0.89010   0.58540   0.80470   0.01267  Uiso   1.00
H92    H     0.88310   0.51940   0.80690   0.01267  Uiso   1.00
H93    H     0.84710   0.54120   0.77120   0.01267  Uiso   1.00
H94    H     0.14980   0.58240   0.69500   0.01267  Uiso   1.00
H95    H     0.11050   0.51620   0.70810   0.01267  Uiso   1.00
H96    H     0.17540   0.56160   0.73430   0.01267  Uiso   1.00
H97    H     0.25350   0.68200   0.67380   0.01267  Uiso   1.00
H98    H     0.33120   0.72840   0.65590   0.01267  Uiso   1.00
H99    H     0.25500   0.70120   0.63000   0.01267  Uiso   1.00
H100   H     0.21240   0.91640   0.69130   0.01267  Uiso   1.00
H101   H     0.18960   0.90200   0.64720   0.01267  Uiso   1.00
H102   H     0.27910   0.93000   0.65950   0.01267  Uiso   1.00
H103   H     0.49860   0.90660   0.62740   0.01267  Uiso   1.00
H104   H     0.45450   0.84740   0.64990   0.01267  Uiso   1.00
H105   H     0.43510   0.90340   0.65920   0.01267  Uiso   1.00
H106   H     0.19280   0.78380   0.53840   0.01267  Uiso   1.00
H107   H     0.17120   0.83060   0.56240   0.01267  Uiso   1.00
H108   H     0.16540   0.77100   0.58200   0.01267  Uiso   1.00
H109   H     0.86610   0.09800   0.57150   0.01267  Uiso   1.00
H110   H     0.77490   0.06360   0.56510   0.01267  Uiso   1.00
H111   H     0.82570   0.03260   0.58610   0.01267  Uiso   1.00
H112   H     0.87200   0.98100   0.41760   0.01267  Uiso   1.00
H113   H     0.78840   0.93800   0.43200   0.01267  Uiso   1.00
H114   H     0.79910   0.00060   0.41550   0.01267  Uiso   1.00
H115   H     0.00080   0.04460   0.37530   0.01267  Uiso   1.00
H116   H     0.05060   0.08340   0.34100   0.01267  Uiso   1.00
H117   H     0.06500   0.02660   0.35410   0.01267  Uiso   1.00
H118   H     0.31220   0.18760   0.45250   0.01267  Uiso   1.00
H119   H     0.32360   0.21320   0.40990   0.01267  Uiso   1.00
H120   H     0.27970   0.23680   0.44120   0.01267  Uiso   1.00
H121   H     0.20760   0.29660   0.34510   0.01267  Uiso   1.00
H122   H     0.19610   0.25860   0.38320   0.01267  Uiso   1.00
H123   H     0.28160   0.29900   0.36980   0.01267  Uiso   1.00
H124   H     0.25440   0.07760   0.28730   0.01267  Uiso   1.00
H125   H     0.23080   0.06300   0.33120   0.01267  Uiso   1.00
H126   H     0.16550   0.05880   0.30010   0.01267  Uiso   1.00
H127   H     0.60990   0.41460   0.80470   0.01267  Uiso   1.00
H128   H     0.61690   0.48060   0.80690   0.01267  Uiso   1.00
H129   H     0.65290   0.45880   0.77120   0.01267  Uiso   1.00
H130   H     0.35020   0.41760   0.69500   0.01267  Uiso   1.00
H131   H     0.38950   0.48380   0.70810   0.01267  Uiso   1.00
H132   H     0.32460   0.43840   0.73430   0.01267  Uiso   1.00
H133   H     0.24650   0.31800   0.67380   0.01267  Uiso   1.00
H134   H     0.16880   0.27160   0.65590   0.01267  Uiso   1.00
H135   H     0.24500   0.29880   0.63000   0.01267  Uiso   1.00
H136   H     0.28760   0.08360   0.69130   0.01267  Uiso   1.00
H137   H     0.31040   0.09800   0.64720   0.01267  Uiso   1.00
H138   H     0.22090   0.07000   0.65950   0.01267  Uiso   1.00
H139   H     0.00140   0.09340   0.62740   0.01267  Uiso   1.00
H140   H     0.04550   0.15260   0.64990   0.01267  Uiso   1.00
H141   H     0.06490   0.09660   0.65920   0.01267  Uiso   1.00
H142   H     0.30720   0.21620   0.53840   0.01267  Uiso   1.00
H143   H     0.32880   0.16940   0.56240   0.01267  Uiso   1.00
H144   H     0.33460   0.22900   0.58200   0.01267  Uiso   1.00
H145   H     0.73190   0.09800   0.07150   0.01267  Uiso   1.00
H146   H     0.78870   0.06360   0.06510   0.01267  Uiso   1.00
H147   H     0.70690   0.03260   0.08610   0.01267  Uiso   1.00
H148   H     0.60900   0.98100   0.91760   0.01267  Uiso   1.00
H149   H     0.64960   0.93800   0.93200   0.01267  Uiso   1.00
H150   H     0.70150   0.00060   0.91550   0.01267  Uiso   1.00
H151   H     0.54380   0.04460   0.87530   0.01267  Uiso   1.00
H152   H     0.53280   0.08340   0.84100   0.01267  Uiso   1.00
H153   H     0.46160   0.02660   0.85410   0.01267  Uiso   1.00
H154   H     0.37540   0.18760   0.95250   0.01267  Uiso   1.00
H155   H     0.38960   0.21320   0.90990   0.01267  Uiso   1.00
H156   H     0.45710   0.23680   0.94120   0.01267  Uiso   1.00
H157   H     0.58900   0.29660   0.84510   0.01267  Uiso   1.00
H158   H     0.56250   0.25860   0.88320   0.01267  Uiso   1.00
H159   H     0.51740   0.29900   0.86980   0.01267  Uiso   1.00
H160   H     0.32320   0.07760   0.78730   0.01267  Uiso   1.00
H161   H     0.33220   0.06300   0.83120   0.01267  Uiso   1.00
H162   H     0.39330   0.05880   0.80010   0.01267  Uiso   1.00
H163   H     0.30470   0.41460   0.30470   0.01267  Uiso   1.00
H164   H     0.36370   0.48060   0.30690   0.01267  Uiso   1.00
H165   H     0.30590   0.45880   0.27120   0.01267  Uiso   1.00
H166   H     0.56740   0.41760   0.19500   0.01267  Uiso   1.00
H167   H     0.59430   0.48380   0.20810   0.01267  Uiso   1.00
H168   H     0.61380   0.43840   0.23430   0.01267  Uiso   1.00
H169   H     0.57150   0.31800   0.17380   0.01267  Uiso   1.00
H170   H     0.60280   0.27160   0.15590   0.01267  Uiso   1.00
H171   H     0.55380   0.29880   0.13000   0.01267  Uiso   1.00
H172   H     0.29600   0.08360   0.19130   0.01267  Uiso   1.00
H173   H     0.28760   0.09800   0.14720   0.01267  Uiso   1.00
H174   H     0.34910   0.07000   0.15950   0.01267  Uiso   1.00
H175   H     0.59200   0.09340   0.12740   0.01267  Uiso   1.00
H176   H     0.60710   0.15260   0.14990   0.01267  Uiso   1.00
H177   H     0.53170   0.09660   0.15920   0.01267  Uiso   1.00
H178   H     0.40900   0.21620   0.03840   0.01267  Uiso   1.00
H179   H     0.34060   0.16940   0.06240   0.01267  Uiso   1.00
H180   H     0.39440   0.22900   0.08200   0.01267  Uiso   1.00
H181   H     0.76810   0.90200   0.07150   0.01267  Uiso   1.00
H182   H     0.71130   0.93640   0.06510   0.01267  Uiso   1.00
H183   H     0.79310   0.96740   0.08610   0.01267  Uiso   1.00
H184   H     0.89100   0.01900   0.91760   0.01267  Uiso   1.00
H185   H     0.85040   0.06200   0.93200   0.01267  Uiso   1.00
H186   H     0.79850   0.99940   0.91550   0.01267  Uiso   1.00
H187   H     0.95620   0.95540   0.87530   0.01267  Uiso   1.00
H188   H     0.96720   0.91660   0.84100   0.01267  Uiso   1.00
H189   H     0.03840   0.97340   0.85410   0.01267  Uiso   1.00
H190   H     0.12460   0.81240   0.95250   0.01267  Uiso   1.00
H191   H     0.11040   0.78680   0.90990   0.01267  Uiso   1.00
H192   H     0.04290   0.76320   0.94120   0.01267  Uiso   1.00
H193   H     0.91100   0.70340   0.84510   0.01267  Uiso   1.00
H194   H     0.93750   0.74140   0.88320   0.01267  Uiso   1.00
H195   H     0.98260   0.70100   0.86980   0.01267  Uiso   1.00
H196   H     0.17680   0.92240   0.78730   0.01267  Uiso   1.00
H197   H     0.16780   0.93700   0.83120   0.01267  Uiso   1.00
H198   H     0.10670   0.94120   0.80010   0.01267  Uiso   1.00
H199   H     0.19530   0.58540   0.30470   0.01267  Uiso   1.00
H200   H     0.13630   0.51940   0.30690   0.01267  Uiso   1.00
H201   H     0.19410   0.54120   0.27120   0.01267  Uiso   1.00
H202   H     0.93260   0.58240   0.19500   0.01267  Uiso   1.00
H203   H     0.90570   0.51620   0.20810   0.01267  Uiso   1.00
H204   H     0.88620   0.56160   0.23430   0.01267  Uiso   1.00
H205   H     0.92850   0.68200   0.17380   0.01267  Uiso   1.00
H206   H     0.89720   0.72840   0.15590   0.01267  Uiso   1.00
H207   H     0.94620   0.70120   0.13000   0.01267  Uiso   1.00
H208   H     0.20400   0.91640   0.19130   0.01267  Uiso   1.00
H209   H     0.21240   0.90200   0.14720   0.01267  Uiso   1.00
H210   H     0.15090   0.93000   0.15950   0.01267  Uiso   1.00
H211   H     0.90800   0.90660   0.12740   0.01267  Uiso   1.00
H212   H     0.89290   0.84740   0.14990   0.01267  Uiso   1.00
H213   H     0.96830   0.90340   0.15920   0.01267  Uiso   1.00
H214   H     0.09100   0.78380   0.03840   0.01267  Uiso   1.00
H215   H     0.15940   0.83060   0.06240   0.01267  Uiso   1.00
H216   H     0.10560   0.77100   0.08200   0.01267  Uiso   1.00
H217   H     0.36610   0.09800   0.42850   0.01267  Uiso   1.00
H218   H     0.27490   0.06360   0.43490   0.01267  Uiso   1.00
H219   H     0.32570   0.03260   0.41390   0.01267  Uiso   1.00
H220   H     0.37200   0.98100   0.58240   0.01267  Uiso   1.00
H221   H     0.28840   0.93800   0.56800   0.01267  Uiso   1.00
H222   H     0.29910   0.00060   0.58450   0.01267  Uiso   1.00
H223   H     0.50080   0.04460   0.62470   0.01267  Uiso   1.00
H224   H     0.55060   0.08340   0.65900   0.01267  Uiso   1.00
H225   H     0.56500   0.02660   0.64590   0.01267  Uiso   1.00
H226   H     0.81220   0.18760   0.54750   0.01267  Uiso   1.00
H227   H     0.82360   0.21320   0.59010   0.01267  Uiso   1.00
H228   H     0.77970   0.23680   0.55880   0.01267  Uiso   1.00
H229   H     0.70760   0.29660   0.65490   0.01267  Uiso   1.00
H230   H     0.69610   0.25860   0.61680   0.01267  Uiso   1.00
H231   H     0.78160   0.29900   0.63020   0.01267  Uiso   1.00
H232   H     0.75440   0.07760   0.71270   0.01267  Uiso   1.00
H233   H     0.73080   0.06300   0.66880   0.01267  Uiso   1.00
H234   H     0.66550   0.05880   0.69990   0.01267  Uiso   1.00
H235   H     0.10990   0.41460   0.19530   0.01267  Uiso   1.00
H236   H     0.11690   0.48060   0.19310   0.01267  Uiso   1.00
H237   H     0.15290   0.45880   0.22880   0.01267  Uiso   1.00
H238   H     0.85020   0.41760   0.30500   0.01267  Uiso   1.00
H239   H     0.88950   0.48380   0.29190   0.01267  Uiso   1.00
H240   H     0.82460   0.43840   0.26570   0.01267  Uiso   1.00
H241   H     0.74650   0.31800   0.32620   0.01267  Uiso   1.00
H242   H     0.66880   0.27160   0.34410   0.01267  Uiso   1.00
H243   H     0.74500   0.29880   0.37000   0.01267  Uiso   1.00
H244   H     0.78760   0.08360   0.30870   0.01267  Uiso   1.00
H245   H     0.81040   0.09800   0.35280   0.01267  Uiso   1.00
H246   H     0.72090   0.07000   0.34050   0.01267  Uiso   1.00
H247   H     0.50140   0.09340   0.37260   0.01267  Uiso   1.00
H248   H     0.54550   0.15260   0.35010   0.01267  Uiso   1.00
H249   H     0.56490   0.09660   0.34080   0.01267  Uiso   1.00
H250   H     0.80720   0.21620   0.46160   0.01267  Uiso   1.00
H251   H     0.82880   0.16940   0.43760   0.01267  Uiso   1.00
H252   H     0.83460   0.22900   0.41800   0.01267  Uiso   1.00
H253   H     0.13390   0.90200   0.42850   0.01267  Uiso   1.00
H254   H     0.22510   0.93640   0.43490   0.01267  Uiso   1.00
H255   H     0.17430   0.96740   0.41390   0.01267  Uiso   1.00
H256   H     0.12800   0.01900   0.58240   0.01267  Uiso   1.00
H257   H     0.21160   0.06200   0.56800   0.01267  Uiso   1.00
H258   H     0.20090   0.99940   0.58450   0.01267  Uiso   1.00
H259   H     0.99920   0.95540   0.62470   0.01267  Uiso   1.00
H260   H     0.94940   0.91660   0.65900   0.01267  Uiso   1.00
H261   H     0.93500   0.97340   0.64590   0.01267  Uiso   1.00
H262   H     0.68780   0.81240   0.54750   0.01267  Uiso   1.00
H263   H     0.67640   0.78680   0.59010   0.01267  Uiso   1.00
H264   H     0.72030   0.76320   0.55880   0.01267  Uiso   1.00
H265   H     0.79240   0.70340   0.65490   0.01267  Uiso   1.00
H266   H     0.80390   0.74140   0.61680   0.01267  Uiso   1.00
H267   H     0.71840   0.70100   0.63020   0.01267  Uiso   1.00
H268   H     0.74560   0.92240   0.71270   0.01267  Uiso   1.00
H269   H     0.76920   0.93700   0.66880   0.01267  Uiso   1.00
H270   H     0.83450   0.94120   0.69990   0.01267  Uiso   1.00
H271   H     0.39010   0.58540   0.19530   0.01267  Uiso   1.00
H272   H     0.38310   0.51940   0.19310   0.01267  Uiso   1.00
H273   H     0.34710   0.54120   0.22880   0.01267  Uiso   1.00
H274   H     0.64980   0.58240   0.30500   0.01267  Uiso   1.00
H275   H     0.61050   0.51620   0.29190   0.01267  Uiso   1.00
H276   H     0.67540   0.56160   0.26570   0.01267  Uiso   1.00
H277   H     0.75350   0.68200   0.32620   0.01267  Uiso   1.00
H278   H     0.83120   0.72840   0.34410   0.01267  Uiso   1.00
H279   H     0.75500   0.70120   0.37000   0.01267  Uiso   1.00
H280   H     0.71240   0.91640   0.30870   0.01267  Uiso   1.00
H281   H     0.68960   0.90200   0.35280   0.01267  Uiso   1.00
H282   H     0.77910   0.93000   0.34050   0.01267  Uiso   1.00
H283   H     0.99860   0.90660   0.37260   0.01267  Uiso   1.00
H284   H     0.95450   0.84740   0.35010   0.01267  Uiso   1.00
H285   H     0.93510   0.90340   0.34080   0.01267  Uiso   1.00
H286   H     0.69280   0.78380   0.46160   0.01267  Uiso   1.00
H287   H     0.67120   0.83060   0.43760   0.01267  Uiso   1.00
H288   H     0.66540   0.77100   0.41800   0.01267  Uiso   1.00
C1     C     0.26569   0.93998   0.93405   0.01267  Uiso   1.00
C2     C     0.30363   0.96146   0.97205   0.01267  Uiso   1.00
C3     C     0.28281   0.99002   0.00158   0.01267  Uiso   1.00
C4     C     0.33831   0.99642   0.03022   0.01267  Uiso   1.00
C5     C     0.34517   0.02134   0.06968   0.01267  Uiso   1.00
C6     C     0.49270   0.94080   0.13707   0.01267  Uiso   1.00
C7     C     0.51721   0.90582   0.10919   0.01267  Uiso   1.00
C8     C     0.54254   0.86048   0.11575   0.01267  Uiso   1.00
C9     C     0.55611   0.84282   0.07936   0.01267  Uiso   1.00
C10    C     0.58612   0.79744   0.06796   0.01267  Uiso   1.00
C11    C     0.45568   0.72596   0.13899   0.01267  Uiso   1.00
C12    C     0.51002   0.77464   0.16192   0.01267  Uiso   1.00
C13    C     0.54715   0.83290   0.15248   0.01267  Uiso   1.00
C14    C     0.59014   0.85848   0.18525   0.01267  Uiso   1.00
C15    C     0.63957   0.91994   0.19227   0.01267  Uiso   1.00
C16    C     0.66214   0.55208   0.71027   0.01267  Uiso   1.00
C17    C     0.60223   0.56766   0.73117   0.01267  Uiso   1.00
C18    C     0.53335   0.53170   0.74857   0.01267  Uiso   1.00
C19    C     0.49974   0.56988   0.76225   0.01267  Uiso   1.00
C20    C     0.42457   0.55634   0.78303   0.01267  Uiso   1.00
C21    C     0.43997   0.71434   0.84422   0.01267  Uiso   1.00
C22    C     0.51310   0.76200   0.83255   0.01267  Uiso   1.00
C23    C     0.55088   0.81516   0.85049   0.01267  Uiso   1.00
C24    C     0.61557   0.84434   0.82754   0.01267  Uiso   1.00
C25    C     0.67589   0.90318   0.83281   0.01267  Uiso   1.00
C26    C     0.43277   0.88194   0.86106   0.01267  Uiso   1.00
C27    C     0.47693   0.86446   0.89082   0.01267  Uiso   1.00
C28    C     0.52785   0.83550   0.88625   0.01267  Uiso   1.00
C29    C     0.55172   0.82864   0.92332   0.01267  Uiso   1.00
C30    C     0.60657   0.80114   0.93621   0.01267  Uiso   1.00
C31    C     0.23431   0.06002   0.93405   0.01267  Uiso   1.00
C32    C     0.19637   0.03854   0.97205   0.01267  Uiso   1.00
C33    C     0.21719   0.00998   0.00158   0.01267  Uiso   1.00
C34    C     0.16169   0.00358   0.03022   0.01267  Uiso   1.00
C35    C     0.15483   0.97866   0.06968   0.01267  Uiso   1.00
C36    C     0.00730   0.05920   0.13707   0.01267  Uiso   1.00
C37    C     0.98279   0.09418   0.10919   0.01267  Uiso   1.00
C38    C     0.95746   0.13952   0.11575   0.01267  Uiso   1.00
C39    C     0.94389   0.15718   0.07936   0.01267  Uiso   1.00
C40    C     0.91388   0.20256   0.06796   0.01267  Uiso   1.00
C41    C     0.04432   0.27404   0.13899   0.01267  Uiso   1.00
C42    C     0.98998   0.22536   0.16192   0.01267  Uiso   1.00
C43    C     0.95285   0.16710   0.15248   0.01267  Uiso   1.00
C44    C     0.90986   0.14152   0.18525   0.01267  Uiso   1.00
C45    C     0.86043   0.08006   0.19227   0.01267  Uiso   1.00
C46    C     0.83786   0.44792   0.71027   0.01267  Uiso   1.00
C47    C     0.89777   0.43234   0.73117   0.01267  Uiso   1.00
C48    C     0.96665   0.46830   0.74857   0.01267  Uiso   1.00
C49    C     0.00026   0.43012   0.76225   0.01267  Uiso   1.00
C50    C     0.07543   0.44366   0.78303   0.01267  Uiso   1.00
C51    C     0.06003   0.28566   0.84422   0.01267  Uiso   1.00
C52    C     0.98690   0.23800   0.83255   0.01267  Uiso   1.00
C53    C     0.94912   0.18484   0.85049   0.01267  Uiso   1.00
C54    C     0.88443   0.15566   0.82754   0.01267  Uiso   1.00
C55    C     0.82411   0.09682   0.83281   0.01267  Uiso   1.00
C56    C     0.06723   0.11806   0.86106   0.01267  Uiso   1.00
C57    C     0.02307   0.13554   0.89082   0.01267  Uiso   1.00
C58    C     0.97215   0.16450   0.88625   0.01267  Uiso   1.00
C59    C     0.94828   0.17136   0.92332   0.01267  Uiso   1.00
C60    C     0.89343   0.19886   0.93621   0.01267  Uiso   1.00
C61    C     0.67429   0.93998   0.56595   0.01267  Uiso   1.00
C62    C     0.65783   0.96146   0.52795   0.01267  Uiso   1.00
C63    C     0.70721   0.99002   0.49842   0.01267  Uiso   1.00
C64    C     0.65811   0.99642   0.46978   0.01267  Uiso   1.00
C65    C     0.67617   0.02134   0.43032   0.01267  Uiso   1.00
C66    C     0.44810   0.94080   0.36293   0.01267  Uiso   1.00
C67    C     0.38861   0.90582   0.39081   0.01267  Uiso   1.00
C68    C     0.31794   0.86048   0.38425   0.01267  Uiso   1.00
C69    C     0.28671   0.84282   0.42064   0.01267  Uiso   1.00
C70    C     0.21132   0.79744   0.43204   0.01267  Uiso   1.00
C71    C     0.27028   0.72596   0.36101   0.01267  Uiso   1.00
C72    C     0.26462   0.77464   0.33808   0.01267  Uiso   1.00
C73    C     0.28575   0.83290   0.34752   0.01267  Uiso   1.00
C74    C     0.26834   0.85848   0.31475   0.01267  Uiso   1.00
C75    C     0.28037   0.91994   0.30773   0.01267  Uiso   1.00
C76    C     0.88994   0.55208   0.78973   0.01267  Uiso   1.00
C77    C     0.96543   0.56766   0.76883   0.01267  Uiso   1.00
C78    C     0.99835   0.53170   0.75143   0.01267  Uiso   1.00
C79    C     0.07014   0.56988   0.73775   0.01267  Uiso   1.00
C80    C     0.13177   0.55634   0.71697   0.01267  Uiso   1.00
C81    C     0.27437   0.71434   0.65578   0.01267  Uiso   1.00
C82    C     0.24890   0.76200   0.66745   0.01267  Uiso   1.00
C83    C     0.26428   0.81516   0.64951   0.01267  Uiso   1.00
C84    C     0.22877   0.84434   0.67246   0.01267  Uiso   1.00
C85    C     0.22729   0.90318   0.66719   0.01267  Uiso   1.00
C86    C     0.44917   0.88194   0.63894   0.01267  Uiso   1.00
C87    C     0.38753   0.86446   0.60918   0.01267  Uiso   1.00
C88    C     0.30765   0.83550   0.61375   0.01267  Uiso   1.00
C89    C     0.27692   0.82864   0.57668   0.01267  Uiso   1.00
C90    C     0.19457   0.80114   0.56379   0.01267  Uiso   1.00
C91    C     0.82571   0.06002   0.56595   0.01267  Uiso   1.00
C92    C     0.84217   0.03854   0.52795   0.01267  Uiso   1.00
C93    C     0.79279   0.00998   0.49842   0.01267  Uiso   1.00
C94    C     0.84189   0.00358   0.46978   0.01267  Uiso   1.00
C95    C     0.82383   0.97866   0.43032   0.01267  Uiso   1.00
C96    C     0.05190   0.05920   0.36293   0.01267  Uiso   1.00
C97    C     0.11139   0.09418   0.39081   0.01267  Uiso   1.00
C98    C     0.18206   0.13952   0.38425   0.01267  Uiso   1.00
C99    C     0.21329   0.15718   0.42064   0.01267  Uiso   1.00
C100   C     0.28868   0.20256   0.43204   0.01267  Uiso   1.00
C101   C     0.22972   0.27404   0.36101   0.01267  Uiso   1.00
C102   C     0.23538   0.22536   0.33808   0.01267  Uiso   1.00
C103   C     0.21425   0.16710   0.34752   0.01267  Uiso   1.00
C104   C     0.23166   0.14152   0.31475   0.01267  Uiso   1.00
C105   C     0.21963   0.08006   0.30773   0.01267  Uiso   1.00
C106   C     0.61006   0.44792   0.78973   0.01267  Uiso   1.00
C107   C     0.53457   0.43234   0.76883   0.01267  Uiso   1.00
C108   C     0.50165   0.46830   0.75143   0.01267  Uiso   1.00
C109   C     0.42986   0.43012   0.73775   0.01267  Uiso   1.00
C110   C     0.36823   0.44366   0.71697   0.01267  Uiso   1.00
C111   C     0.22563   0.28566   0.65578   0.01267  Uiso   1.00
C112   C     0.25110   0.23800   0.66745   0.01267  Uiso   1.00
C113   C     0.23572   0.18484   0.64951   0.01267  Uiso   1.00
C114   C     0.27123   0.15566   0.67246   0.01267  Uiso   1.00
C115   C     0.27271   0.09682   0.66719   0.01267  Uiso   1.00
C116   C     0.05083   0.11806   0.63894   0.01267  Uiso   1.00
C117   C     0.11247   0.13554   0.60918   0.01267  Uiso   1.00
C118   C     0.19235   0.16450   0.61375   0.01267  Uiso   1.00
C119   C     0.22308   0.17136   0.57668   0.01267  Uiso   1.00
C120   C     0.30543   0.19886   0.56379   0.01267  Uiso   1.00
C121   C     0.73431   0.06002   0.06595   0.01267  Uiso   1.00
C122   C     0.69637   0.03854   0.02795   0.01267  Uiso   1.00
C123   C     0.71719   0.00998   0.99842   0.01267  Uiso   1.00
C124   C     0.66169   0.00358   0.96978   0.01267  Uiso   1.00
C125   C     0.65483   0.97866   0.93032   0.01267  Uiso   1.00
C126   C     0.50730   0.05920   0.86293   0.01267  Uiso   1.00
C127   C     0.48279   0.09418   0.89081   0.01267  Uiso   1.00
C128   C     0.45746   0.13952   0.88425   0.01267  Uiso   1.00
C129   C     0.44389   0.15718   0.92064   0.01267  Uiso   1.00
C130   C     0.41388   0.20256   0.93204   0.01267  Uiso   1.00
C131   C     0.54432   0.27404   0.86101   0.01267  Uiso   1.00
C132   C     0.48998   0.22536   0.83808   0.01267  Uiso   1.00
C133   C     0.45285   0.16710   0.84752   0.01267  Uiso   1.00
C134   C     0.40986   0.14152   0.81475   0.01267  Uiso   1.00
C135   C     0.36043   0.08006   0.80773   0.01267  Uiso   1.00
C136   C     0.33786   0.44792   0.28973   0.01267  Uiso   1.00
C137   C     0.39777   0.43234   0.26883   0.01267  Uiso   1.00
C138   C     0.46665   0.46830   0.25143   0.01267  Uiso   1.00
C139   C     0.50026   0.43012   0.23775   0.01267  Uiso   1.00
C140   C     0.57543   0.44366   0.21697   0.01267  Uiso   1.00
C141   C     0.56003   0.28566   0.15578   0.01267  Uiso   1.00
C142   C     0.48690   0.23800   0.16745   0.01267  Uiso   1.00
C143   C     0.44912   0.18484   0.14951   0.01267  Uiso   1.00
C144   C     0.38443   0.15566   0.17246   0.01267  Uiso   1.00
C145   C     0.32411   0.09682   0.16719   0.01267  Uiso   1.00
C146   C     0.56723   0.11806   0.13894   0.01267  Uiso   1.00
C147   C     0.52307   0.13554   0.10918   0.01267  Uiso   1.00
C148   C     0.47215   0.16450   0.11375   0.01267  Uiso   1.00
C149   C     0.44828   0.17136   0.07668   0.01267  Uiso   1.00
C150   C     0.39343   0.19886   0.06379   0.01267  Uiso   1.00
C151   C     0.76569   0.93998   0.06595   0.01267  Uiso   1.00
C152   C     0.80363   0.96146   0.02795   0.01267  Uiso   1.00
C153   C     0.78281   0.99002   0.99842   0.01267  Uiso   1.00
C154   C     0.83831   0.99642   0.96978   0.01267  Uiso   1.00
C155   C     0.84517   0.02134   0.93032   0.01267  Uiso   1.00
C156   C     0.99270   0.94080   0.86293   0.01267  Uiso   1.00
C157   C     0.01721   0.90582   0.89081   0.01267  Uiso   1.00
C158   C     0.04254   0.86048   0.88425   0.01267  Uiso   1.00
C159   C     0.05611   0.84282   0.92064   0.01267  Uiso   1.00
C160   C     0.08612   0.79744   0.93204   0.01267  Uiso   1.00
C161   C     0.95568   0.72596   0.86101   0.01267  Uiso   1.00
C162   C     0.01002   0.77464   0.83808   0.01267  Uiso   1.00
C163   C     0.04715   0.83290   0.84752   0.01267  Uiso   1.00
C164   C     0.09014   0.85848   0.81475   0.01267  Uiso   1.00
C165   C     0.13957   0.91994   0.80773   0.01267  Uiso   1.00
C166   C     0.16214   0.55208   0.28973   0.01267  Uiso   1.00
C167   C     0.10223   0.56766   0.26883   0.01267  Uiso   1.00
C168   C     0.03335   0.53170   0.25143   0.01267  Uiso   1.00
C169   C     0.99974   0.56988   0.23775   0.01267  Uiso   1.00
C170   C     0.92457   0.55634   0.21697   0.01267  Uiso   1.00
C171   C     0.93997   0.71434   0.15578   0.01267  Uiso   1.00
C172   C     0.01310   0.76200   0.16745   0.01267  Uiso   1.00
C173   C     0.05088   0.81516   0.14951   0.01267  Uiso   1.00
C174   C     0.11557   0.84434   0.17246   0.01267  Uiso   1.00
C175   C     0.17589   0.90318   0.16719   0.01267  Uiso   1.00
C176   C     0.93277   0.88194   0.13894   0.01267  Uiso   1.00
C177   C     0.97693   0.86446   0.10918   0.01267  Uiso   1.00
C178   C     0.02785   0.83550   0.11375   0.01267  Uiso   1.00
C179   C     0.05172   0.82864   0.07668   0.01267  Uiso   1.00
C180   C     0.10657   0.80114   0.06379   0.01267  Uiso   1.00
C181   C     0.32571   0.06002   0.43405   0.01267  Uiso   1.00
C182   C     0.34217   0.03854   0.47205   0.01267  Uiso   1.00
C183   C     0.29279   0.00998   0.50158   0.01267  Uiso   1.00
C184   C     0.34189   0.00358   0.53022   0.01267  Uiso   1.00
C185   C     0.32383   0.97866   0.56968   0.01267  Uiso   1.00
C186   C     0.55190   0.05920   0.63707   0.01267  Uiso   1.00
C187   C     0.61139   0.09418   0.60919   0.01267  Uiso   1.00
C188   C     0.68206   0.13952   0.61575   0.01267  Uiso   1.00
C189   C     0.71329   0.15718   0.57936   0.01267  Uiso   1.00
C190   C     0.78868   0.20256   0.56796   0.01267  Uiso   1.00
C191   C     0.72972   0.27404   0.63899   0.01267  Uiso   1.00
C192   C     0.73538   0.22536   0.66192   0.01267  Uiso   1.00
C193   C     0.71425   0.16710   0.65248   0.01267  Uiso   1.00
C194   C     0.73166   0.14152   0.68525   0.01267  Uiso   1.00
C195   C     0.71963   0.08006   0.69227   0.01267  Uiso   1.00
C196   C     0.11006   0.44792   0.21027   0.01267  Uiso   1.00
C197   C     0.03457   0.43234   0.23117   0.01267  Uiso   1.00
C198   C     0.00165   0.46830   0.24857   0.01267  Uiso   1.00
C199   C     0.92986   0.43012   0.26225   0.01267  Uiso   1.00
C200   C     0.86823   0.44366   0.28303   0.01267  Uiso   1.00
C201   C     0.72563   0.28566   0.34422   0.01267  Uiso   1.00
C202   C     0.75110   0.23800   0.33255   0.01267  Uiso   1.00
C203   C     0.73572   0.18484   0.35049   0.01267  Uiso   1.00
C204   C     0.77123   0.15566   0.32754   0.01267  Uiso   1.00
C205   C     0.77271   0.09682   0.33281   0.01267  Uiso   1.00
C206   C     0.55083   0.11806   0.36106   0.01267  Uiso   1.00
C207   C     0.61247   0.13554   0.39082   0.01267  Uiso   1.00
C208   C     0.69235   0.16450   0.38625   0.01267  Uiso   1.00
C209   C     0.72308   0.17136   0.42332   0.01267  Uiso   1.00
C210   C     0.80543   0.19886   0.43621   0.01267  Uiso   1.00
C211   C     0.17429   0.93998   0.43405   0.01267  Uiso   1.00
C212   C     0.15783   0.96146   0.47205   0.01267  Uiso   1.00
C213   C     0.20721   0.99002   0.50158   0.01267  Uiso   1.00
C214   C     0.15811   0.99642   0.53022   0.01267  Uiso   1.00
C215   C     0.17617   0.02134   0.56968   0.01267  Uiso   1.00
C216   C     0.94810   0.94080   0.63707   0.01267  Uiso   1.00
C217   C     0.88861   0.90582   0.60919   0.01267  Uiso   1.00
C218   C     0.81794   0.86048   0.61575   0.01267  Uiso   1.00
C219   C     0.78671   0.84282   0.57936   0.01267  Uiso   1.00
C220   C     0.71132   0.79744   0.56796   0.01267  Uiso   1.00
C221   C     0.77028   0.72596   0.63899   0.01267  Uiso   1.00
C222   C     0.76462   0.77464   0.66192   0.01267  Uiso   1.00
C223   C     0.78575   0.83290   0.65248   0.01267  Uiso   1.00
C224   C     0.76834   0.85848   0.68525   0.01267  Uiso   1.00
C225   C     0.78037   0.91994   0.69227   0.01267  Uiso   1.00
C226   C     0.38994   0.55208   0.21027   0.01267  Uiso   1.00
C227   C     0.46543   0.56766   0.23117   0.01267  Uiso   1.00
C228   C     0.49835   0.53170   0.24857   0.01267  Uiso   1.00
C229   C     0.57014   0.56988   0.26225   0.01267  Uiso   1.00
C230   C     0.63177   0.55634   0.28303   0.01267  Uiso   1.00
C231   C     0.77437   0.71434   0.34422   0.01267  Uiso   1.00
C232   C     0.74890   0.76200   0.33255   0.01267  Uiso   1.00
C233   C     0.76428   0.81516   0.35049   0.01267  Uiso   1.00
C234   C     0.72877   0.84434   0.32754   0.01267  Uiso   1.00
C235   C     0.72729   0.90318   0.33281   0.01267  Uiso   1.00
C236   C     0.94917   0.88194   0.36106   0.01267  Uiso   1.00
C237   C     0.88753   0.86446   0.39082   0.01267  Uiso   1.00
C238   C     0.80765   0.83550   0.38625   0.01267  Uiso   1.00
C239   C     0.77692   0.82864   0.42332   0.01267  Uiso   1.00
C240   C     0.69457   0.80114   0.43621   0.01267  Uiso   1.00
N1     N     0.36785   0.95190   0.98185   0.01267  Uiso   1.00
N2     N     0.38917   0.97354   0.01807   0.01267  Uiso   1.00
N3     N     0.51576   0.91532   0.07145   0.01267  Uiso   1.00
N4     N     0.53974   0.87568   0.05273   0.01267  Uiso   1.00
N5     N     0.52882   0.76544   0.19782   0.01267  Uiso   1.00
N6     N     0.57938   0.81756   0.21240   0.01267  Uiso   1.00
N7     N     0.61007   0.62334   0.73526   0.01267  Uiso   1.00
N8     N     0.54569   0.62438   0.75417   0.01267  Uiso   1.00
N9     N     0.55286   0.75892   0.80097   0.01267  Uiso   1.00
N10    N     0.61638   0.80976   0.79804   0.01267  Uiso   1.00
N11    N     0.47175   0.87510   0.92824   0.01267  Uiso   1.00
N12    N     0.51769   0.85278   0.94837   0.01267  Uiso   1.00
N13    N     0.13215   0.04810   0.98185   0.01267  Uiso   1.00
N14    N     0.11083   0.02646   0.01807   0.01267  Uiso   1.00
N15    N     0.98424   0.08468   0.07145   0.01267  Uiso   1.00
N16    N     0.96026   0.12432   0.05273   0.01267  Uiso   1.00
N17    N     0.97118   0.23456   0.19782   0.01267  Uiso   1.00
N18    N     0.92062   0.18244   0.21240   0.01267  Uiso   1.00
N19    N     0.88993   0.37666   0.73526   0.01267  Uiso   1.00
N20    N     0.95431   0.37562   0.75417   0.01267  Uiso   1.00
N21    N     0.94714   0.24108   0.80097   0.01267  Uiso   1.00
N22    N     0.88362   0.19024   0.79804   0.01267  Uiso   1.00
N23    N     0.02825   0.12490   0.92824   0.01267  Uiso   1.00
N24    N     0.98231   0.14722   0.94837   0.01267  Uiso   1.00
N25    N     0.58405   0.95190   0.51815   0.01267  Uiso   1.00
N26    N     0.58437   0.97354   0.48193   0.01267  Uiso   1.00
N27    N     0.39956   0.91532   0.42855   0.01267  Uiso   1.00
N28    N     0.33594   0.87568   0.44727   0.01267  Uiso   1.00
N29    N     0.23662   0.76544   0.30218   0.01267  Uiso   1.00
N30    N     0.23818   0.81756   0.28760   0.01267  Uiso   1.00
N31    N     0.01327   0.62334   0.76474   0.01267  Uiso   1.00
N32    N     0.07869   0.62438   0.74583   0.01267  Uiso   1.00
N33    N     0.20606   0.75892   0.69903   0.01267  Uiso   1.00
N34    N     0.19338   0.80976   0.70196   0.01267  Uiso   1.00
N35    N     0.40335   0.87510   0.57176   0.01267  Uiso   1.00
N36    N     0.33509   0.85278   0.55163   0.01267  Uiso   1.00
N37    N     0.91595   0.04810   0.51815   0.01267  Uiso   1.00
N38    N     0.91563   0.02646   0.48193   0.01267  Uiso   1.00
N39    N     0.10044   0.08468   0.42855   0.01267  Uiso   1.00
N40    N     0.16406   0.12432   0.44727   0.01267  Uiso   1.00
N41    N     0.26338   0.23456   0.30218   0.01267  Uiso   1.00
N42    N     0.26182   0.18244   0.28760   0.01267  Uiso   1.00
N43    N     0.48673   0.37666   0.76474   0.01267  Uiso   1.00
N44    N     0.42131   0.37562   0.74583   0.01267  Uiso   1.00
N45    N     0.29394   0.24108   0.69903   0.01267  Uiso   1.00
N46    N     0.30662   0.19024   0.70196   0.01267  Uiso   1.00
N47    N     0.09665   0.12490   0.57176   0.01267  Uiso   1.00
N48    N     0.16491   0.14722   0.55163   0.01267  Uiso   1.00
N49    N     0.63215   0.04810   0.01815   0.01267  Uiso   1.00
N50    N     0.61083   0.02646   0.98193   0.01267  Uiso   1.00
N51    N     0.48424   0.08468   0.92855   0.01267  Uiso   1.00
N52    N     0.46026   0.12432   0.94727   0.01267  Uiso   1.00
N53    N     0.47118   0.23456   0.80218   0.01267  Uiso   1.00
N54    N     0.42062   0.18244   0.78760   0.01267  Uiso   1.00
N55    N     0.38993   0.37666   0.26474   0.01267  Uiso   1.00
N56    N     0.45431   0.37562   0.24583   0.01267  Uiso   1.00
N57    N     0.44714   0.24108   0.19903   0.01267  Uiso   1.00
N58    N     0.38362   0.19024   0.20196   0.01267  Uiso   1.00
N59    N     0.52825   0.12490   0.07176   0.01267  Uiso   1.00
N60    N     0.48231   0.14722   0.05163   0.01267  Uiso   1.00
N61    N     0.86785   0.95190   0.01815   0.01267  Uiso   1.00
N62    N     0.88917   0.97354   0.98193   0.01267  Uiso   1.00
N63    N     0.01576   0.91532   0.92855   0.01267  Uiso   1.00
N64    N     0.03974   0.87568   0.94727   0.01267  Uiso   1.00
N65    N     0.02882   0.76544   0.80218   0.01267  Uiso   1.00
N66    N     0.07938   0.81756   0.78760   0.01267  Uiso   1.00
N67    N     0.11007   0.62334   0.26474   0.01267  Uiso   1.00
N68    N     0.04569   0.62438   0.24583   0.01267  Uiso   1.00
N69    N     0.05286   0.75892   0.19903   0.01267  Uiso   1.00
N70    N     0.11638   0.80976   0.20196   0.01267  Uiso   1.00
N71    N     0.97175   0.87510   0.07176   0.01267  Uiso   1.00
N72    N     0.01769   0.85278   0.05163   0.01267  Uiso   1.00
N73    N     0.41595   0.04810   0.48185   0.01267  Uiso   1.00
N74    N     0.41563   0.02646   0.51807   0.01267  Uiso   1.00
N75    N     0.60044   0.08468   0.57145   0.01267  Uiso   1.00
N76    N     0.66406   0.12432   0.55273   0.01267  Uiso   1.00
N77    N     0.76338   0.23456   0.69782   0.01267  Uiso   1.00
N78    N     0.76182   0.18244   0.71240   0.01267  Uiso   1.00
N79    N     0.98673   0.37666   0.23526   0.01267  Uiso   1.00
N80    N     0.92131   0.37562   0.25417   0.01267  Uiso   1.00
N81    N     0.79394   0.24108   0.30097   0.01267  Uiso   1.00
N82    N     0.80662   0.19024   0.29804   0.01267  Uiso   1.00
N83    N     0.59665   0.12490   0.42824   0.01267  Uiso   1.00
N84    N     0.66491   0.14722   0.44837   0.01267  Uiso   1.00
N85    N     0.08405   0.95190   0.48185   0.01267  Uiso   1.00
N86    N     0.08437   0.97354   0.51807   0.01267  Uiso   1.00
N87    N     0.89956   0.91532   0.57145   0.01267  Uiso   1.00
N88    N     0.83594   0.87568   0.55273   0.01267  Uiso   1.00
N89    N     0.73662   0.76544   0.69782   0.01267  Uiso   1.00
N90    N     0.73818   0.81756   0.71240   0.01267  Uiso   1.00
N91    N     0.51327   0.62334   0.23526   0.01267  Uiso   1.00
N92    N     0.57869   0.62438   0.25417   0.01267  Uiso   1.00
N93    N     0.70606   0.75892   0.30097   0.01267  Uiso   1.00
N94    N     0.69338   0.80976   0.29804   0.01267  Uiso   1.00
N95    N     0.90335   0.87510   0.42824   0.01267  Uiso   1.00
N96    N     0.83509   0.85278   0.44837   0.01267  Uiso   1.00
Cu49   Cu    0.16057   0.63938   0.99974   0.01267  Uiso   1.00
Cu50   Cu    0.00883   0.58608   0.04818   0.01267  Uiso   1.00
Cu51   Cu    0.00678   0.54636   0.96019   0.01267  Uiso   1.00
Cu52   Cu    0.31515   0.77938   0.77156   0.01267  Uiso   1.00
Cu53   Cu    0.36282   0.83214   0.21746   0.01267  Uiso   1.00
Cu54   Cu    0.33943   0.36062   0.99974   0.01267  Uiso   1.00
Cu55   Cu    0.49117   0.41392   0.04818   0.01267  Uiso   1.00
Cu56   Cu    0.49322   0.45364   0.96019   0.01267  Uiso   1.00
Cu57   Cu    0.18485   0.22062   0.77156   0.01267  Uiso   1.00
Cu58   Cu    0.13718   0.16786   0.21746   0.01267  Uiso   1.00
Cu59   Cu    0.47881   0.63938   0.50026   0.01267  Uiso   1.00
Cu60   Cu    0.57725   0.58608   0.45182   0.01267  Uiso   1.00
Cu61   Cu    0.53958   0.54636   0.53981   0.01267  Uiso   1.00
Cu62   Cu    0.46423   0.77938   0.72844   0.01267  Uiso   1.00
Cu63   Cu    0.46932   0.83214   0.28254   0.01267  Uiso   1.00
Cu64   Cu    0.02119   0.36062   0.50026   0.01267  Uiso   1.00
Cu65   Cu    0.92275   0.41392   0.45182   0.01267  Uiso   1.00
Cu66   Cu    0.96042   0.45364   0.53981   0.01267  Uiso   1.00
Cu67   Cu    0.03577   0.22062   0.72844   0.01267  Uiso   1.00
Cu68   Cu    0.03068   0.16786   0.28254   0.01267  Uiso   1.00
Cu69   Cu    0.83943   0.36062   0.00026   0.01267  Uiso   1.00
Cu70   Cu    0.99117   0.41392   0.95182   0.01267  Uiso   1.00
Cu71   Cu    0.99322   0.45364   0.03981   0.01267  Uiso   1.00
Cu72   Cu    0.68485   0.22062   0.22844   0.01267  Uiso   1.00
Cu73   Cu    0.63718   0.16786   0.78254   0.01267  Uiso   1.00
Cu74   Cu    0.66057   0.63938   0.00026   0.01267  Uiso   1.00
Cu75   Cu    0.50883   0.58608   0.95182   0.01267  Uiso   1.00
Cu76   Cu    0.50678   0.54636   0.03981   0.01267  Uiso   1.00
Cu77   Cu    0.81515   0.77938   0.22844   0.01267  Uiso   1.00
Cu78   Cu    0.86282   0.83214   0.78254   0.01267  Uiso   1.00
Cu79   Cu    0.52119   0.36062   0.49974   0.01267  Uiso   1.00
Cu80   Cu    0.42275   0.41392   0.54818   0.01267  Uiso   1.00
Cu81   Cu    0.46042   0.45364   0.46019   0.01267  Uiso   1.00
Cu82   Cu    0.53577   0.22062   0.27156   0.01267  Uiso   1.00
Cu83   Cu    0.53068   0.16786   0.71746   0.01267  Uiso   1.00
Cu84   Cu    0.97881   0.63938   0.49974   0.01267  Uiso   1.00
Cu85   Cu    0.07725   0.58608   0.54818   0.01267  Uiso   1.00
Cu86   Cu    0.03958   0.54636   0.46019   0.01267  Uiso   1.00
Cu87   Cu    0.96423   0.77938   0.27156   0.01267  Uiso   1.00
Cu88   Cu    0.96932   0.83214   0.71746   0.01267  Uiso   1.00
Cu89   Cu    0.35333   0.70666   0.25000   0.01267  Uiso   1.00
Cu90   Cu    0.14667   0.29334   0.25000   0.01267  Uiso   1.00
Cu91   Cu    0.64667   0.29334   0.75000   0.01267  Uiso   1.00
Cu92   Cu    0.85333   0.70666   0.75000   0.01267  Uiso   1.00
Cu93   Cu    0.33009   0.66018   0.75000   0.01267  Uiso   1.00
Cu94   Cu    0.16991   0.33982   0.75000   0.01267  Uiso   1.00
Cu95   Cu    0.66991   0.33982   0.25000   0.01267  Uiso   1.00
Cu96   Cu    0.83009   0.66018   0.25000   0.01267  Uiso   1.00
H289   H     0.19210   0.77960   0.82440   0.01267  Uiso   1.00
H290   H     0.14830   0.73980   0.85970   0.01267  Uiso   1.00
H291   H     0.23830   0.78020   0.86310   0.01267  Uiso   1.00
H292   H     0.24670   0.55400   0.79830   0.01267  Uiso   1.00
H293   H     0.29610   0.57460   0.83680   0.01267  Uiso   1.00
H294   H     0.20360   0.54360   0.83890   0.01267  Uiso   1.00
H295   H     0.26760   0.74120   0.93340   0.01267  Uiso   1.00
H296   H     0.30310   0.69760   0.95180   0.01267  Uiso   1.00
H297   H     0.31520   0.71320   0.90720   0.01267  Uiso   1.00
H298   H     0.99400   0.54100   0.87610   0.01267  Uiso   1.00
H299   H     0.05180   0.56680   0.84090   0.01267  Uiso   1.00
H300   H     0.05490   0.51240   0.86420   0.01267  Uiso   1.00
H301   H     0.86890   0.59820   0.07670   0.01267  Uiso   1.00
H302   H     0.77750   0.56700   0.06900   0.01267  Uiso   1.00
H303   H     0.82340   0.53320   0.09110   0.01267  Uiso   1.00
H304   H     0.86110   0.46080   0.92880   0.01267  Uiso   1.00
H305   H     0.77050   0.44260   0.93790   0.01267  Uiso   1.00
H306   H     0.81810   0.50400   0.91870   0.01267  Uiso   1.00
H307   H     0.30050   0.72600   0.03350   0.01267  Uiso   1.00
H308   H     0.33160   0.74740   0.07580   0.01267  Uiso   1.00
H309   H     0.33370   0.68780   0.05970   0.01267  Uiso   1.00
H310   H     0.00810   0.60900   0.12970   0.01267  Uiso   1.00
H311   H     0.06550   0.58720   0.15370   0.01267  Uiso   1.00
H312   H     0.06770   0.65140   0.15960   0.01267  Uiso   1.00
H313   H     0.28760   0.84200   0.15060   0.01267  Uiso   1.00
H314   H     0.33030   0.82120   0.11720   0.01267  Uiso   1.00
H315   H     0.23760   0.80080   0.11720   0.01267  Uiso   1.00
H316   H     0.26380   0.59960   0.20520   0.01267  Uiso   1.00
H317   H     0.17610   0.59320   0.19700   0.01267  Uiso   1.00
H318   H     0.22980   0.58760   0.16260   0.01267  Uiso   1.00
H319   H     0.35880   0.94420   0.18510   0.01267  Uiso   1.00
H320   H     0.33500   0.97580   0.22000   0.01267  Uiso   1.00
H321   H     0.40640   0.01160   0.19300   0.01267  Uiso   1.00
H322   H     0.69360   0.10720   0.20210   0.01267  Uiso   1.00
H323   H     0.70910   0.08760   0.24400   0.01267  Uiso   1.00
H324   H     0.65090   0.04140   0.21540   0.01267  Uiso   1.00
H325   H     0.30790   0.22040   0.82440   0.01267  Uiso   1.00
H326   H     0.35170   0.26020   0.85970   0.01267  Uiso   1.00
H327   H     0.26170   0.21980   0.86310   0.01267  Uiso   1.00
H328   H     0.25330   0.44600   0.79830   0.01267  Uiso   1.00
H329   H     0.20390   0.42540   0.83680   0.01267  Uiso   1.00
H330   H     0.29640   0.45640   0.83890   0.01267  Uiso   1.00
H331   H     0.23240   0.25880   0.93340   0.01267  Uiso   1.00
H332   H     0.19690   0.30240   0.95180   0.01267  Uiso   1.00
H333   H     0.18480   0.28680   0.90720   0.01267  Uiso   1.00
H334   H     0.50600   0.45900   0.87610   0.01267  Uiso   1.00
H335   H     0.44820   0.43320   0.84090   0.01267  Uiso   1.00
H336   H     0.44510   0.48760   0.86420   0.01267  Uiso   1.00
H337   H     0.63110   0.40180   0.07670   0.01267  Uiso   1.00
H338   H     0.72250   0.43300   0.06900   0.01267  Uiso   1.00
H339   H     0.67660   0.46680   0.09110   0.01267  Uiso   1.00
H340   H     0.63890   0.53920   0.92880   0.01267  Uiso   1.00
H341   H     0.72950   0.55740   0.93790   0.01267  Uiso   1.00
H342   H     0.68190   0.49600   0.91870   0.01267  Uiso   1.00
H343   H     0.19950   0.27400   0.03350   0.01267  Uiso   1.00
H344   H     0.16840   0.25260   0.07580   0.01267  Uiso   1.00
H345   H     0.16630   0.31220   0.05970   0.01267  Uiso   1.00
H346   H     0.49190   0.39100   0.12970   0.01267  Uiso   1.00
H347   H     0.43450   0.41280   0.15370   0.01267  Uiso   1.00
H348   H     0.43230   0.34860   0.15960   0.01267  Uiso   1.00
H349   H     0.21240   0.15800   0.15060   0.01267  Uiso   1.00
H350   H     0.16970   0.17880   0.11720   0.01267  Uiso   1.00
H351   H     0.26240   0.19920   0.11720   0.01267  Uiso   1.00
H352   H     0.23620   0.40040   0.20520   0.01267  Uiso   1.00
H353   H     0.32390   0.40680   0.19700   0.01267  Uiso   1.00
H354   H     0.27020   0.41240   0.16260   0.01267  Uiso   1.00
H355   H     0.14120   0.05580   0.18510   0.01267  Uiso   1.00
H356   H     0.16500   0.02420   0.22000   0.01267  Uiso   1.00
H357   H     0.09360   0.98840   0.19300   0.01267  Uiso   1.00
H358   H     0.80640   0.89280   0.20210   0.01267  Uiso   1.00
H359   H     0.79090   0.91240   0.24400   0.01267  Uiso   1.00
H360   H     0.84910   0.95860   0.21540   0.01267  Uiso   1.00
H361   H     0.58750   0.77960   0.67560   0.01267  Uiso   1.00
H362   H     0.59150   0.73980   0.64030   0.01267  Uiso   1.00
H363   H     0.54190   0.78020   0.63690   0.01267  Uiso   1.00
H364   H     0.30730   0.55400   0.70170   0.01267  Uiso   1.00
H365   H     0.27850   0.57460   0.66320   0.01267  Uiso   1.00
H366   H     0.34000   0.54360   0.66110   0.01267  Uiso   1.00
H367   H     0.47360   0.74120   0.56660   0.01267  Uiso   1.00
H368   H     0.39450   0.69760   0.54820   0.01267  Uiso   1.00
H369   H     0.39800   0.71320   0.59280   0.01267  Uiso   1.00
H370   H     0.54700   0.54100   0.62390   0.01267  Uiso   1.00
H371   H     0.51500   0.56680   0.65910   0.01267  Uiso   1.00
H372   H     0.45750   0.51240   0.63580   0.01267  Uiso   1.00
H373   H     0.72930   0.59820   0.42330   0.01267  Uiso   1.00
H374   H     0.78950   0.56700   0.43100   0.01267  Uiso   1.00
H375   H     0.70980   0.53320   0.40890   0.01267  Uiso   1.00
H376   H     0.59970   0.46080   0.57120   0.01267  Uiso   1.00
H377   H     0.67210   0.44260   0.56210   0.01267  Uiso   1.00
H378   H     0.68590   0.50400   0.58130   0.01267  Uiso   1.00
H379   H     0.42550   0.72600   0.46650   0.01267  Uiso   1.00
H380   H     0.41580   0.74740   0.42420   0.01267  Uiso   1.00
H381   H     0.35410   0.68780   0.44030   0.01267  Uiso   1.00
H382   H     0.60090   0.60900   0.37030   0.01267  Uiso   1.00
H383   H     0.52170   0.58720   0.34630   0.01267  Uiso   1.00
H384   H     0.58370   0.65140   0.34040   0.01267  Uiso   1.00
H385   H     0.55440   0.84200   0.34940   0.01267  Uiso   1.00
H386   H     0.49090   0.82120   0.38280   0.01267  Uiso   1.00
H387   H     0.56320   0.80080   0.38280   0.01267  Uiso   1.00
H388   H     0.33580   0.59960   0.29480   0.01267  Uiso   1.00
H389   H     0.41710   0.59320   0.30300   0.01267  Uiso   1.00
H390   H     0.35780   0.58760   0.33740   0.01267  Uiso   1.00
H391   H     0.58540   0.94420   0.31490   0.01267  Uiso   1.00
H392   H     0.64080   0.97580   0.28000   0.01267  Uiso   1.00
H393   H     0.60520   0.01160   0.30700   0.01267  Uiso   1.00
H394   H     0.41360   0.10720   0.29790   0.01267  Uiso   1.00
H395   H     0.37850   0.08760   0.25600   0.01267  Uiso   1.00
H396   H     0.39050   0.04140   0.28460   0.01267  Uiso   1.00
H397   H     0.91250   0.22040   0.67560   0.01267  Uiso   1.00
H398   H     0.90850   0.26020   0.64030   0.01267  Uiso   1.00
H399   H     0.95810   0.21980   0.63690   0.01267  Uiso   1.00
H400   H     0.19270   0.44600   0.70170   0.01267  Uiso   1.00
H401   H     0.22150   0.42540   0.66320   0.01267  Uiso   1.00
H402   H     0.16000   0.45640   0.66110   0.01267  Uiso   1.00
H403   H     0.02640   0.25880   0.56660   0.01267  Uiso   1.00
H404   H     0.10550   0.30240   0.54820   0.01267  Uiso   1.00
H405   H     0.10200   0.28680   0.59280   0.01267  Uiso   1.00
H406   H     0.95300   0.45900   0.62390   0.01267  Uiso   1.00
H407   H     0.98500   0.43320   0.65910   0.01267  Uiso   1.00
H408   H     0.04250   0.48760   0.63580   0.01267  Uiso   1.00
H409   H     0.77070   0.40180   0.42330   0.01267  Uiso   1.00
H410   H     0.71050   0.43300   0.43100   0.01267  Uiso   1.00
H411   H     0.79020   0.46680   0.40890   0.01267  Uiso   1.00
H412   H     0.90030   0.53920   0.57120   0.01267  Uiso   1.00
H413   H     0.82790   0.55740   0.56210   0.01267  Uiso   1.00
H414   H     0.81410   0.49600   0.58130   0.01267  Uiso   1.00
H415   H     0.07450   0.27400   0.46650   0.01267  Uiso   1.00
H416   H     0.08420   0.25260   0.42420   0.01267  Uiso   1.00
H417   H     0.14590   0.31220   0.44030   0.01267  Uiso   1.00
H418   H     0.89910   0.39100   0.37030   0.01267  Uiso   1.00
H419   H     0.97830   0.41280   0.34630   0.01267  Uiso   1.00
H420   H     0.91630   0.34860   0.34040   0.01267  Uiso   1.00
H421   H     0.94560   0.15800   0.34940   0.01267  Uiso   1.00
H422   H     0.00910   0.17880   0.38280   0.01267  Uiso   1.00
H423   H     0.93680   0.19920   0.38280   0.01267  Uiso   1.00
H424   H     0.16420   0.40040   0.29480   0.01267  Uiso   1.00
H425   H     0.08290   0.40680   0.30300   0.01267  Uiso   1.00
H426   H     0.14220   0.41240   0.33740   0.01267  Uiso   1.00
H427   H     0.91460   0.05580   0.31490   0.01267  Uiso   1.00
H428   H     0.85920   0.02420   0.28000   0.01267  Uiso   1.00
H429   H     0.89480   0.98840   0.30700   0.01267  Uiso   1.00
H430   H     0.08640   0.89280   0.29790   0.01267  Uiso   1.00
H431   H     0.12150   0.91240   0.25600   0.01267  Uiso   1.00
H432   H     0.10950   0.95860   0.28460   0.01267  Uiso   1.00
H433   H     0.80790   0.22040   0.17560   0.01267  Uiso   1.00
H434   H     0.85170   0.26020   0.14030   0.01267  Uiso   1.00
H435   H     0.76170   0.21980   0.13690   0.01267  Uiso   1.00
H436   H     0.75330   0.44600   0.20170   0.01267  Uiso   1.00
H437   H     0.70390   0.42540   0.16320   0.01267  Uiso   1.00
H438   H     0.79640   0.45640   0.16110   0.01267  Uiso   1.00
H439   H     0.73240   0.25880   0.06660   0.01267  Uiso   1.00
H440   H     0.69690   0.30240   0.04820   0.01267  Uiso   1.00
H441   H     0.68480   0.28680   0.09280   0.01267  Uiso   1.00
H442   H     0.00600   0.45900   0.12390   0.01267  Uiso   1.00
H443   H     0.94820   0.43320   0.15910   0.01267  Uiso   1.00
H444   H     0.94510   0.48760   0.13580   0.01267  Uiso   1.00
H445   H     0.13110   0.40180   0.92330   0.01267  Uiso   1.00
H446   H     0.22250   0.43300   0.93100   0.01267  Uiso   1.00
H447   H     0.17660   0.46680   0.90890   0.01267  Uiso   1.00
H448   H     0.13890   0.53920   0.07120   0.01267  Uiso   1.00
H449   H     0.22950   0.55740   0.06210   0.01267  Uiso   1.00
H450   H     0.18190   0.49600   0.08130   0.01267  Uiso   1.00
H451   H     0.69950   0.27400   0.96650   0.01267  Uiso   1.00
H452   H     0.66840   0.25260   0.92420   0.01267  Uiso   1.00
H453   H     0.66630   0.31220   0.94030   0.01267  Uiso   1.00
H454   H     0.99190   0.39100   0.87030   0.01267  Uiso   1.00
H455   H     0.93450   0.41280   0.84630   0.01267  Uiso   1.00
H456   H     0.93230   0.34860   0.84040   0.01267  Uiso   1.00
H457   H     0.71240   0.15800   0.84940   0.01267  Uiso   1.00
H458   H     0.66970   0.17880   0.88280   0.01267  Uiso   1.00
H459   H     0.76240   0.19920   0.88280   0.01267  Uiso   1.00
H460   H     0.73620   0.40040   0.79480   0.01267  Uiso   1.00
H461   H     0.82390   0.40680   0.80300   0.01267  Uiso   1.00
H462   H     0.77020   0.41240   0.83740   0.01267  Uiso   1.00
H463   H     0.64120   0.05580   0.81490   0.01267  Uiso   1.00
H464   H     0.66500   0.02420   0.78000   0.01267  Uiso   1.00
H465   H     0.59360   0.98840   0.80700   0.01267  Uiso   1.00
H466   H     0.30640   0.89280   0.79790   0.01267  Uiso   1.00
H467   H     0.29090   0.91240   0.75600   0.01267  Uiso   1.00
H468   H     0.34910   0.95860   0.78460   0.01267  Uiso   1.00
H469   H     0.69210   0.77960   0.17560   0.01267  Uiso   1.00
H470   H     0.64830   0.73980   0.14030   0.01267  Uiso   1.00
H471   H     0.73830   0.78020   0.13690   0.01267  Uiso   1.00
H472   H     0.74670   0.55400   0.20170   0.01267  Uiso   1.00
H473   H     0.79610   0.57460   0.16320   0.01267  Uiso   1.00
H474   H     0.70360   0.54360   0.16110   0.01267  Uiso   1.00
H475   H     0.76760   0.74120   0.06660   0.01267  Uiso   1.00
H476   H     0.80310   0.69760   0.04820   0.01267  Uiso   1.00
H477   H     0.81520   0.71320   0.09280   0.01267  Uiso   1.00
H478   H     0.49400   0.54100   0.12390   0.01267  Uiso   1.00
H479   H     0.55180   0.56680   0.15910   0.01267  Uiso   1.00
H480   H     0.55490   0.51240   0.13580   0.01267  Uiso   1.00
H481   H     0.36890   0.59820   0.92330   0.01267  Uiso   1.00
H482   H     0.27750   0.56700   0.93100   0.01267  Uiso   1.00
H483   H     0.32340   0.53320   0.90890   0.01267  Uiso   1.00
H484   H     0.36110   0.46080   0.07120   0.01267  Uiso   1.00
H485   H     0.27050   0.44260   0.06210   0.01267  Uiso   1.00
H486   H     0.31810   0.50400   0.08130   0.01267  Uiso   1.00
H487   H     0.80050   0.72600   0.96650   0.01267  Uiso   1.00
H488   H     0.83160   0.74740   0.92420   0.01267  Uiso   1.00
H489   H     0.83370   0.68780   0.94030   0.01267  Uiso   1.00
H490   H     0.50810   0.60900   0.87030   0.01267  Uiso   1.00
H491   H     0.56550   0.58720   0.84630   0.01267  Uiso   1.00
H492   H     0.56770   0.65140   0.84040   0.01267  Uiso   1.00
H493   H     0.78760   0.84200   0.84940   0.01267  Uiso   1.00
H494   H     0.83030   0.82120   0.88280   0.01267  Uiso   1.00
H495   H     0.73760   0.80080   0.88280   0.01267  Uiso   1.00
H496   H     0.76380   0.59960   0.79480   0.01267  Uiso   1.00
H497   H     0.67610   0.59320   0.80300   0.01267  Uiso   1.00
H498   H     0.72980   0.58760   0.83740   0.01267  Uiso   1.00
H499   H     0.85880   0.94420   0.81490   0.01267  Uiso   1.00
H500   H     0.83500   0.97580   0.78000   0.01267  Uiso   1.00
H501   H     0.90640   0.01160   0.80700   0.01267  Uiso   1.00
H502   H     0.19360   0.10720   0.79790   0.01267  Uiso   1.00
H503   H     0.20910   0.08760   0.75600   0.01267  Uiso   1.00
H504   H     0.15090   0.04140   0.78460   0.01267  Uiso   1.00
H505   H     0.41250   0.22040   0.32440   0.01267  Uiso   1.00
H506   H     0.40850   0.26020   0.35970   0.01267  Uiso   1.00
H507   H     0.45810   0.21980   0.36310   0.01267  Uiso   1.00
H508   H     0.69270   0.44600   0.29830   0.01267  Uiso   1.00
H509   H     0.72150   0.42540   0.33680   0.01267  Uiso   1.00
H510   H     0.66000   0.45640   0.33890   0.01267  Uiso   1.00
H511   H     0.52640   0.25880   0.43340   0.01267  Uiso   1.00
H512   H     0.60550   0.30240   0.45180   0.01267  Uiso   1.00
H513   H     0.60200   0.28680   0.40720   0.01267  Uiso   1.00
H514   H     0.45300   0.45900   0.37610   0.01267  Uiso   1.00
H515   H     0.48500   0.43320   0.34090   0.01267  Uiso   1.00
H516   H     0.54250   0.48760   0.36420   0.01267  Uiso   1.00
H517   H     0.27070   0.40180   0.57670   0.01267  Uiso   1.00
H518   H     0.21050   0.43300   0.56900   0.01267  Uiso   1.00
H519   H     0.29020   0.46680   0.59110   0.01267  Uiso   1.00
H520   H     0.40030   0.53920   0.42880   0.01267  Uiso   1.00
H521   H     0.32790   0.55740   0.43790   0.01267  Uiso   1.00
H522   H     0.31410   0.49600   0.41870   0.01267  Uiso   1.00
H523   H     0.57450   0.27400   0.53350   0.01267  Uiso   1.00
H524   H     0.58420   0.25260   0.57580   0.01267  Uiso   1.00
H525   H     0.64590   0.31220   0.55970   0.01267  Uiso   1.00
H526   H     0.39910   0.39100   0.62970   0.01267  Uiso   1.00
H527   H     0.47830   0.41280   0.65370   0.01267  Uiso   1.00
H528   H     0.41630   0.34860   0.65960   0.01267  Uiso   1.00
H529   H     0.44560   0.15800   0.65060   0.01267  Uiso   1.00
H530   H     0.50910   0.17880   0.61720   0.01267  Uiso   1.00
H531   H     0.43680   0.19920   0.61720   0.01267  Uiso   1.00
H532   H     0.66420   0.40040   0.70520   0.01267  Uiso   1.00
H533   H     0.58290   0.40680   0.69700   0.01267  Uiso   1.00
H534   H     0.64220   0.41240   0.66260   0.01267  Uiso   1.00
H535   H     0.41460   0.05580   0.68510   0.01267  Uiso   1.00
H536   H     0.35920   0.02420   0.72000   0.01267  Uiso   1.00
H537   H     0.39480   0.98840   0.69300   0.01267  Uiso   1.00
H538   H     0.58640   0.89280   0.70210   0.01267  Uiso   1.00
H539   H     0.62150   0.91240   0.74400   0.01267  Uiso   1.00
H540   H     0.60950   0.95860   0.71540   0.01267  Uiso   1.00
H541   H     0.08750   0.77960   0.32440   0.01267  Uiso   1.00
H542   H     0.09150   0.73980   0.35970   0.01267  Uiso   1.00
H543   H     0.04190   0.78020   0.36310   0.01267  Uiso   1.00
H544   H     0.80730   0.55400   0.29830   0.01267  Uiso   1.00
H545   H     0.77850   0.57460   0.33680   0.01267  Uiso   1.00
H546   H     0.84000   0.54360   0.33890   0.01267  Uiso   1.00
H547   H     0.97360   0.74120   0.43340   0.01267  Uiso   1.00
H548   H     0.89450   0.69760   0.45180   0.01267  Uiso   1.00
H549   H     0.89800   0.71320   0.40720   0.01267  Uiso   1.00
H550   H     0.04700   0.54100   0.37610   0.01267  Uiso   1.00
H551   H     0.01500   0.56680   0.34090   0.01267  Uiso   1.00
H552   H     0.95750   0.51240   0.36420   0.01267  Uiso   1.00
H553   H     0.22930   0.59820   0.57670   0.01267  Uiso   1.00
H554   H     0.28950   0.56700   0.56900   0.01267  Uiso   1.00
H555   H     0.20980   0.53320   0.59110   0.01267  Uiso   1.00
H556   H     0.09970   0.46080   0.42880   0.01267  Uiso   1.00
H557   H     0.17210   0.44260   0.43790   0.01267  Uiso   1.00
H558   H     0.18590   0.50400   0.41870   0.01267  Uiso   1.00
H559   H     0.92550   0.72600   0.53350   0.01267  Uiso   1.00
H560   H     0.91580   0.74740   0.57580   0.01267  Uiso   1.00
H561   H     0.85410   0.68780   0.55970   0.01267  Uiso   1.00
H562   H     0.10090   0.60900   0.62970   0.01267  Uiso   1.00
H563   H     0.02170   0.58720   0.65370   0.01267  Uiso   1.00
H564   H     0.08370   0.65140   0.65960   0.01267  Uiso   1.00
H565   H     0.05440   0.84200   0.65060   0.01267  Uiso   1.00
H566   H     0.99090   0.82120   0.61720   0.01267  Uiso   1.00
H567   H     0.06320   0.80080   0.61720   0.01267  Uiso   1.00
H568   H     0.83580   0.59960   0.70520   0.01267  Uiso   1.00
H569   H     0.91710   0.59320   0.69700   0.01267  Uiso   1.00
H570   H     0.85780   0.58760   0.66260   0.01267  Uiso   1.00
H571   H     0.08540   0.94420   0.68510   0.01267  Uiso   1.00
H572   H     0.14080   0.97580   0.72000   0.01267  Uiso   1.00
H573   H     0.10520   0.01160   0.69300   0.01267  Uiso   1.00
H574   H     0.91360   0.10720   0.70210   0.01267  Uiso   1.00
H575   H     0.87850   0.08760   0.74400   0.01267  Uiso   1.00
H576   H     0.89050   0.04140   0.71540   0.01267  Uiso   1.00
C241   C     0.19775   0.75610   0.84579   0.01267  Uiso   1.00
C242   C     0.21955   0.70810   0.83086   0.01267  Uiso   1.00
C243   C     0.20872   0.65484   0.84700   0.01267  Uiso   1.00
C244   C     0.23955   0.62710   0.82082   0.01267  Uiso   1.00
C245   C     0.24717   0.56994   0.82397   0.01267  Uiso   1.00
C246   C     0.27925   0.70650   0.92887   0.01267  Uiso   1.00
C247   C     0.20564   0.65668   0.91998   0.01267  Uiso   1.00
C248   C     0.17437   0.63314   0.88467   0.01267  Uiso   1.00
C249   C     0.10474   0.58848   0.89289   0.01267  Uiso   1.00
C250   C     0.04638   0.54876   0.86625   0.01267  Uiso   1.00
C251   C     0.82680   0.56120   0.07077   0.01267  Uiso   1.00
C252   C     0.84321   0.53882   0.03364   0.01267  Uiso   1.00
C253   C     0.79294   0.50928   0.00437   0.01267  Uiso   1.00
C254   C     0.84039   0.50178   0.97576   0.01267  Uiso   1.00
C255   C     0.82081   0.47502   0.93695   0.01267  Uiso   1.00
C256   C     0.30454   0.71348   0.05976   0.01267  Uiso   1.00
C257   C     0.22457   0.68174   0.07547   0.01267  Uiso   1.00
C258   C     0.19805   0.67510   0.11302   0.01267  Uiso   1.00
C259   C     0.11930   0.64140   0.11010   0.01267  Uiso   1.00
C260   C     0.06012   0.62044   0.14090   0.01267  Uiso   1.00
C261   C     0.28388   0.80996   0.13337   0.01267  Uiso   1.00
C262   C     0.27780   0.75800   0.15639   0.01267  Uiso   1.00
C263   C     0.24179   0.69938   0.14799   0.01267  Uiso   1.00
C264   C     0.25585   0.67130   0.17980   0.01267  Uiso   1.00
C265   C     0.22908   0.60736   0.18673   0.01267  Uiso   1.00
C266   C     0.37854   0.97388   0.20497   0.01267  Uiso   1.00
C267   C     0.43231   0.95882   0.23048   0.01267  Uiso   1.00
C268   C     0.60408   0.09596   0.23921   0.01267  Uiso   1.00
C269   C     0.67013   0.08186   0.22388   0.01267  Uiso   1.00
C270   C     0.30225   0.24390   0.84579   0.01267  Uiso   1.00
C271   C     0.28045   0.29190   0.83086   0.01267  Uiso   1.00
C272   C     0.29128   0.34516   0.84700   0.01267  Uiso   1.00
C273   C     0.26045   0.37290   0.82082   0.01267  Uiso   1.00
C274   C     0.25283   0.43006   0.82397   0.01267  Uiso   1.00
C275   C     0.22075   0.29350   0.92887   0.01267  Uiso   1.00
C276   C     0.29436   0.34332   0.91998   0.01267  Uiso   1.00
C277   C     0.32563   0.36686   0.88467   0.01267  Uiso   1.00
C278   C     0.39526   0.41152   0.89289   0.01267  Uiso   1.00
C279   C     0.45362   0.45124   0.86625   0.01267  Uiso   1.00
C280   C     0.67320   0.43880   0.07077   0.01267  Uiso   1.00
C281   C     0.65679   0.46118   0.03364   0.01267  Uiso   1.00
C282   C     0.70706   0.49072   0.00437   0.01267  Uiso   1.00
C283   C     0.65961   0.49822   0.97576   0.01267  Uiso   1.00
C284   C     0.67919   0.52498   0.93695   0.01267  Uiso   1.00
C285   C     0.19546   0.28652   0.05976   0.01267  Uiso   1.00
C286   C     0.27543   0.31826   0.07547   0.01267  Uiso   1.00
C287   C     0.30195   0.32490   0.11302   0.01267  Uiso   1.00
C288   C     0.38070   0.35860   0.11010   0.01267  Uiso   1.00
C289   C     0.43988   0.37956   0.14090   0.01267  Uiso   1.00
C290   C     0.21612   0.19004   0.13337   0.01267  Uiso   1.00
C291   C     0.22220   0.24200   0.15639   0.01267  Uiso   1.00
C292   C     0.25821   0.30062   0.14799   0.01267  Uiso   1.00
C293   C     0.24415   0.32870   0.17980   0.01267  Uiso   1.00
C294   C     0.27092   0.39264   0.18673   0.01267  Uiso   1.00
C295   C     0.12146   0.02612   0.20497   0.01267  Uiso   1.00
C296   C     0.06769   0.04118   0.23048   0.01267  Uiso   1.00
C297   C     0.89592   0.90404   0.23921   0.01267  Uiso   1.00
C298   C     0.82987   0.91814   0.22388   0.01267  Uiso   1.00
C299   C     0.55835   0.75610   0.65421   0.01267  Uiso   1.00
C300   C     0.48855   0.70810   0.66914   0.01267  Uiso   1.00
C301   C     0.44612   0.65484   0.65300   0.01267  Uiso   1.00
C302   C     0.38755   0.62710   0.67918   0.01267  Uiso   1.00
C303   C     0.32277   0.56994   0.67603   0.01267  Uiso   1.00
C304   C     0.42725   0.70650   0.57113   0.01267  Uiso   1.00
C305   C     0.45104   0.65668   0.58002   0.01267  Uiso   1.00
C306   C     0.45877   0.63314   0.61533   0.01267  Uiso   1.00
C307   C     0.48374   0.58848   0.60711   0.01267  Uiso   1.00
C308   C     0.50238   0.54876   0.63375   0.01267  Uiso   1.00
C309   C     0.73440   0.56120   0.42923   0.01267  Uiso   1.00
C310   C     0.69561   0.53882   0.46636   0.01267  Uiso   1.00
C311   C     0.71634   0.50928   0.49563   0.01267  Uiso   1.00
C312   C     0.66139   0.50178   0.52424   0.01267  Uiso   1.00
C313   C     0.65421   0.47502   0.56305   0.01267  Uiso   1.00
C314   C     0.40894   0.71348   0.44024   0.01267  Uiso   1.00
C315   C     0.45717   0.68174   0.42453   0.01267  Uiso   1.00
C316   C     0.47705   0.67510   0.38698   0.01267  Uiso   1.00
C317   C     0.52210   0.64140   0.38990   0.01267  Uiso   1.00
C318   C     0.56032   0.62044   0.35910   0.01267  Uiso   1.00
C319   C     0.52608   0.80996   0.36663   0.01267  Uiso   1.00
C320   C     0.48020   0.75800   0.34361   0.01267  Uiso   1.00
C321   C     0.45759   0.69938   0.35201   0.01267  Uiso   1.00
C322   C     0.41545   0.67130   0.32020   0.01267  Uiso   1.00
C323   C     0.37828   0.60736   0.31327   0.01267  Uiso   1.00
C324   C     0.59534   0.97388   0.29503   0.01267  Uiso   1.00
C325   C     0.52651   0.95882   0.26952   0.01267  Uiso   1.00
C326   C     0.49188   0.09596   0.26079   0.01267  Uiso   1.00
C327   C     0.41173   0.08186   0.27612   0.01267  Uiso   1.00
C328   C     0.94165   0.24390   0.65421   0.01267  Uiso   1.00
C329   C     0.01145   0.29190   0.66914   0.01267  Uiso   1.00
C330   C     0.05388   0.34516   0.65300   0.01267  Uiso   1.00
C331   C     0.11245   0.37290   0.67918   0.01267  Uiso   1.00
C332   C     0.17723   0.43006   0.67603   0.01267  Uiso   1.00
C333   C     0.07275   0.29350   0.57113   0.01267  Uiso   1.00
C334   C     0.04896   0.34332   0.58002   0.01267  Uiso   1.00
C335   C     0.04123   0.36686   0.61533   0.01267  Uiso   1.00
C336   C     0.01626   0.41152   0.60711   0.01267  Uiso   1.00
C337   C     0.99762   0.45124   0.63375   0.01267  Uiso   1.00
C338   C     0.76560   0.43880   0.42923   0.01267  Uiso   1.00
C339   C     0.80439   0.46118   0.46636   0.01267  Uiso   1.00
C340   C     0.78366   0.49072   0.49563   0.01267  Uiso   1.00
C341   C     0.83861   0.49822   0.52424   0.01267  Uiso   1.00
C342   C     0.84579   0.52498   0.56305   0.01267  Uiso   1.00
C343   C     0.09106   0.28652   0.44024   0.01267  Uiso   1.00
C344   C     0.04283   0.31826   0.42453   0.01267  Uiso   1.00
C345   C     0.02295   0.32490   0.38698   0.01267  Uiso   1.00
C346   C     0.97790   0.35860   0.38990   0.01267  Uiso   1.00
C347   C     0.93968   0.37956   0.35910   0.01267  Uiso   1.00
C348   C     0.97392   0.19004   0.36663   0.01267  Uiso   1.00
C349   C     0.01980   0.24200   0.34361   0.01267  Uiso   1.00
C350   C     0.04241   0.30062   0.35201   0.01267  Uiso   1.00
C351   C     0.08455   0.32870   0.32020   0.01267  Uiso   1.00
C352   C     0.12172   0.39264   0.31327   0.01267  Uiso   1.00
C353   C     0.90466   0.02612   0.29503   0.01267  Uiso   1.00
C354   C     0.97349   0.04118   0.26952   0.01267  Uiso   1.00
C355   C     0.00812   0.90404   0.26079   0.01267  Uiso   1.00
C356   C     0.08827   0.91814   0.27612   0.01267  Uiso   1.00
C357   C     0.80225   0.24390   0.15421   0.01267  Uiso   1.00
C358   C     0.78045   0.29190   0.16914   0.01267  Uiso   1.00
C359   C     0.79128   0.34516   0.15300   0.01267  Uiso   1.00
C360   C     0.76045   0.37290   0.17918   0.01267  Uiso   1.00
C361   C     0.75283   0.43006   0.17603   0.01267  Uiso   1.00
C362   C     0.72075   0.29350   0.07113   0.01267  Uiso   1.00
C363   C     0.79436   0.34332   0.08002   0.01267  Uiso   1.00
C364   C     0.82563   0.36686   0.11533   0.01267  Uiso   1.00
C365   C     0.89526   0.41152   0.10711   0.01267  Uiso   1.00
C366   C     0.95362   0.45124   0.13375   0.01267  Uiso   1.00
C367   C     0.17320   0.43880   0.92923   0.01267  Uiso   1.00
C368   C     0.15679   0.46118   0.96636   0.01267  Uiso   1.00
C369   C     0.20706   0.49072   0.99563   0.01267  Uiso   1.00
C370   C     0.15961   0.49822   0.02424   0.01267  Uiso   1.00
C371   C     0.17919   0.52498   0.06305   0.01267  Uiso   1.00
C372   C     0.69546   0.28652   0.94024   0.01267  Uiso   1.00
C373   C     0.77543   0.31826   0.92453   0.01267  Uiso   1.00
C374   C     0.80195   0.32490   0.88698   0.01267  Uiso   1.00
C375   C     0.88070   0.35860   0.88990   0.01267  Uiso   1.00
C376   C     0.93988   0.37956   0.85910   0.01267  Uiso   1.00
C377   C     0.71612   0.19004   0.86663   0.01267  Uiso   1.00
C378   C     0.72220   0.24200   0.84361   0.01267  Uiso   1.00
C379   C     0.75821   0.30062   0.85201   0.01267  Uiso   1.00
C380   C     0.74415   0.32870   0.82020   0.01267  Uiso   1.00
C381   C     0.77092   0.39264   0.81327   0.01267  Uiso   1.00
C382   C     0.62146   0.02612   0.79503   0.01267  Uiso   1.00
C383   C     0.56769   0.04118   0.76952   0.01267  Uiso   1.00
C384   C     0.39592   0.90404   0.76079   0.01267  Uiso   1.00
C385   C     0.32987   0.91814   0.77612   0.01267  Uiso   1.00
C386   C     0.69775   0.75610   0.15421   0.01267  Uiso   1.00
C387   C     0.71955   0.70810   0.16914   0.01267  Uiso   1.00
C388   C     0.70872   0.65484   0.15300   0.01267  Uiso   1.00
C389   C     0.73955   0.62710   0.17918   0.01267  Uiso   1.00
C390   C     0.74717   0.56994   0.17603   0.01267  Uiso   1.00
C391   C     0.77925   0.70650   0.07113   0.01267  Uiso   1.00
C392   C     0.70564   0.65668   0.08002   0.01267  Uiso   1.00
C393   C     0.67437   0.63314   0.11533   0.01267  Uiso   1.00
C394   C     0.60474   0.58848   0.10711   0.01267  Uiso   1.00
C395   C     0.54638   0.54876   0.13375   0.01267  Uiso   1.00
C396   C     0.32680   0.56120   0.92923   0.01267  Uiso   1.00
C397   C     0.34321   0.53882   0.96636   0.01267  Uiso   1.00
C398   C     0.29294   0.50928   0.99563   0.01267  Uiso   1.00
C399   C     0.34039   0.50178   0.02424   0.01267  Uiso   1.00
C400   C     0.32081   0.47502   0.06305   0.01267  Uiso   1.00
C401   C     0.80454   0.71348   0.94024   0.01267  Uiso   1.00
C402   C     0.72457   0.68174   0.92453   0.01267  Uiso   1.00
C403   C     0.69805   0.67510   0.88698   0.01267  Uiso   1.00
C404   C     0.61930   0.64140   0.88990   0.01267  Uiso   1.00
C405   C     0.56012   0.62044   0.85910   0.01267  Uiso   1.00
C406   C     0.78388   0.80996   0.86663   0.01267  Uiso   1.00
C407   C     0.77780   0.75800   0.84361   0.01267  Uiso   1.00
C408   C     0.74179   0.69938   0.85201   0.01267  Uiso   1.00
C409   C     0.75585   0.67130   0.82020   0.01267  Uiso   1.00
C410   C     0.72908   0.60736   0.81327   0.01267  Uiso   1.00
C411   C     0.87854   0.97388   0.79503   0.01267  Uiso   1.00
C412   C     0.93231   0.95882   0.76952   0.01267  Uiso   1.00
C413   C     0.10408   0.09596   0.76079   0.01267  Uiso   1.00
C414   C     0.17013   0.08186   0.77612   0.01267  Uiso   1.00
C415   C     0.44165   0.24390   0.34579   0.01267  Uiso   1.00
C416   C     0.51145   0.29190   0.33086   0.01267  Uiso   1.00
C417   C     0.55388   0.34516   0.34700   0.01267  Uiso   1.00
C418   C     0.61245   0.37290   0.32082   0.01267  Uiso   1.00
C419   C     0.67723   0.43006   0.32397   0.01267  Uiso   1.00
C420   C     0.57275   0.29350   0.42887   0.01267  Uiso   1.00
C421   C     0.54896   0.34332   0.41998   0.01267  Uiso   1.00
C422   C     0.54123   0.36686   0.38467   0.01267  Uiso   1.00
C423   C     0.51626   0.41152   0.39289   0.01267  Uiso   1.00
C424   C     0.49762   0.45124   0.36625   0.01267  Uiso   1.00
C425   C     0.26560   0.43880   0.57077   0.01267  Uiso   1.00
C426   C     0.30439   0.46118   0.53364   0.01267  Uiso   1.00
C427   C     0.28366   0.49072   0.50437   0.01267  Uiso   1.00
C428   C     0.33861   0.49822   0.47576   0.01267  Uiso   1.00
C429   C     0.34579   0.52498   0.43695   0.01267  Uiso   1.00
C430   C     0.59106   0.28652   0.55976   0.01267  Uiso   1.00
C431   C     0.54283   0.31826   0.57547   0.01267  Uiso   1.00
C432   C     0.52295   0.32490   0.61302   0.01267  Uiso   1.00
C433   C     0.47790   0.35860   0.61010   0.01267  Uiso   1.00
C434   C     0.43968   0.37956   0.64090   0.01267  Uiso   1.00
C435   C     0.47392   0.19004   0.63337   0.01267  Uiso   1.00
C436   C     0.51980   0.24200   0.65639   0.01267  Uiso   1.00
C437   C     0.54241   0.30062   0.64799   0.01267  Uiso   1.00
C438   C     0.58455   0.32870   0.67980   0.01267  Uiso   1.00
C439   C     0.62172   0.39264   0.68673   0.01267  Uiso   1.00
C440   C     0.40466   0.02612   0.70497   0.01267  Uiso   1.00
C441   C     0.47349   0.04118   0.73048   0.01267  Uiso   1.00
C442   C     0.50812   0.90404   0.73921   0.01267  Uiso   1.00
C443   C     0.58827   0.91814   0.72388   0.01267  Uiso   1.00
C444   C     0.05835   0.75610   0.34579   0.01267  Uiso   1.00
C445   C     0.98855   0.70810   0.33086   0.01267  Uiso   1.00
C446   C     0.94612   0.65484   0.34700   0.01267  Uiso   1.00
C447   C     0.88755   0.62710   0.32082   0.01267  Uiso   1.00
C448   C     0.82277   0.56994   0.32397   0.01267  Uiso   1.00
C449   C     0.92725   0.70650   0.42887   0.01267  Uiso   1.00
C450   C     0.95104   0.65668   0.41998   0.01267  Uiso   1.00
C451   C     0.95877   0.63314   0.38467   0.01267  Uiso   1.00
C452   C     0.98374   0.58848   0.39289   0.01267  Uiso   1.00
C453   C     0.00238   0.54876   0.36625   0.01267  Uiso   1.00
C454   C     0.23440   0.56120   0.57077   0.01267  Uiso   1.00
C455   C     0.19561   0.53882   0.53364   0.01267  Uiso   1.00
C456   C     0.21634   0.50928   0.50437   0.01267  Uiso   1.00
C457   C     0.16139   0.50178   0.47576   0.01267  Uiso   1.00
C458   C     0.15421   0.47502   0.43695   0.01267  Uiso   1.00
C459   C     0.90894   0.71348   0.55976   0.01267  Uiso   1.00
C460   C     0.95717   0.68174   0.57547   0.01267  Uiso   1.00
C461   C     0.97705   0.67510   0.61302   0.01267  Uiso   1.00
C462   C     0.02210   0.64140   0.61010   0.01267  Uiso   1.00
C463   C     0.06032   0.62044   0.64090   0.01267  Uiso   1.00
C464   C     0.02608   0.80996   0.63337   0.01267  Uiso   1.00
C465   C     0.98020   0.75800   0.65639   0.01267  Uiso   1.00
C466   C     0.95759   0.69938   0.64799   0.01267  Uiso   1.00
C467   C     0.91545   0.67130   0.67980   0.01267  Uiso   1.00
C468   C     0.87828   0.60736   0.68673   0.01267  Uiso   1.00
C469   C     0.09534   0.97388   0.70497   0.01267  Uiso   1.00
C470   C     0.02651   0.95882   0.73048   0.01267  Uiso   1.00
C471   C     0.99188   0.09596   0.73921   0.01267  Uiso   1.00
C472   C     0.91173   0.08186   0.72388   0.01267  Uiso   1.00
C473   C     0.49786   0.99572   0.25000   0.01267  Uiso   1.00
C474   C     0.52968   0.05936   0.25000   0.01267  Uiso   1.00
C475   C     0.00214   0.00428   0.25000   0.01267  Uiso   1.00
C476   C     0.97032   0.94064   0.25000   0.01267  Uiso   1.00
C477   C     0.50214   0.00428   0.75000   0.01267  Uiso   1.00
C478   C     0.47032   0.94064   0.75000   0.01267  Uiso   1.00
C479   C     0.99786   0.99572   0.75000   0.01267  Uiso   1.00
C480   C     0.02968   0.05936   0.75000   0.01267  Uiso   1.00
N97    N     0.25486   0.71252   0.79661   0.01267  Uiso   1.00
N98    N     0.26779   0.66178   0.79039   0.01267  Uiso   1.00
N99    N     0.15702   0.62684   0.94768   0.01267  Uiso   1.00
N100   N     0.09466   0.58392   0.93093   0.01267  Uiso   1.00
N101   N     0.91624   0.54788   0.02328   0.01267  Uiso   1.00
N102   N     0.91490   0.52440   0.98732   0.01267  Uiso   1.00
N103   N     0.16587   0.65494   0.05172   0.01267  Uiso   1.00
N104   N     0.10025   0.62890   0.07321   0.01267  Uiso   1.00
N105   N     0.31153   0.76426   0.19118   0.01267  Uiso   1.00
N106   N     0.29796   0.70972   0.20573   0.01267  Uiso   1.00
N107   N     0.42276   0.90332   0.23791   0.01267  Uiso   1.00
N108   N     0.61067   0.15114   0.24347   0.01267  Uiso   1.00
N109   N     0.24514   0.28748   0.79661   0.01267  Uiso   1.00
N110   N     0.23221   0.33822   0.79039   0.01267  Uiso   1.00
N111   N     0.34298   0.37316   0.94768   0.01267  Uiso   1.00
N112   N     0.40534   0.41608   0.93093   0.01267  Uiso   1.00
N113   N     0.58376   0.45212   0.02328   0.01267  Uiso   1.00
N114   N     0.58510   0.47560   0.98732   0.01267  Uiso   1.00
N115   N     0.33413   0.34506   0.05172   0.01267  Uiso   1.00
N116   N     0.39975   0.37110   0.07321   0.01267  Uiso   1.00
N117   N     0.18847   0.23574   0.19118   0.01267  Uiso   1.00
N118   N     0.20204   0.29028   0.20573   0.01267  Uiso   1.00
N119   N     0.07724   0.09668   0.23791   0.01267  Uiso   1.00
N120   N     0.88933   0.84886   0.24347   0.01267  Uiso   1.00
N121   N     0.45766   0.71252   0.70339   0.01267  Uiso   1.00
N122   N     0.39399   0.66178   0.70961   0.01267  Uiso   1.00
N123   N     0.46982   0.62684   0.55232   0.01267  Uiso   1.00
N124   N     0.48926   0.58392   0.56907   0.01267  Uiso   1.00
N125   N     0.63164   0.54788   0.47672   0.01267  Uiso   1.00
N126   N     0.60950   0.52440   0.51268   0.01267  Uiso   1.00
N127   N     0.48907   0.65494   0.44828   0.01267  Uiso   1.00
N128   N     0.52865   0.62890   0.42679   0.01267  Uiso   1.00
N129   N     0.45273   0.76426   0.30882   0.01267  Uiso   1.00
N130   N     0.41176   0.70972   0.29427   0.01267  Uiso   1.00
N131   N     0.48056   0.90332   0.26209   0.01267  Uiso   1.00
N132   N     0.54047   0.15114   0.25653   0.01267  Uiso   1.00
N133   N     0.04234   0.28748   0.70339   0.01267  Uiso   1.00
N134   N     0.10601   0.33822   0.70961   0.01267  Uiso   1.00
N135   N     0.03018   0.37316   0.55232   0.01267  Uiso   1.00
N136   N     0.01074   0.41608   0.56907   0.01267  Uiso   1.00
N137   N     0.86836   0.45212   0.47672   0.01267  Uiso   1.00
N138   N     0.89050   0.47560   0.51268   0.01267  Uiso   1.00
N139   N     0.01093   0.34506   0.44828   0.01267  Uiso   1.00
N140   N     0.97135   0.37110   0.42679   0.01267  Uiso   1.00
N141   N     0.04727   0.23574   0.30882   0.01267  Uiso   1.00
N142   N     0.08824   0.29028   0.29427   0.01267  Uiso   1.00
N143   N     0.01944   0.09668   0.26209   0.01267  Uiso   1.00
N144   N     0.95953   0.84886   0.25653   0.01267  Uiso   1.00
N145   N     0.74514   0.28748   0.20339   0.01267  Uiso   1.00
N146   N     0.73221   0.33822   0.20961   0.01267  Uiso   1.00
N147   N     0.84298   0.37316   0.05232   0.01267  Uiso   1.00
N148   N     0.90534   0.41608   0.06907   0.01267  Uiso   1.00
N149   N     0.08376   0.45212   0.97672   0.01267  Uiso   1.00
N150   N     0.08510   0.47560   0.01268   0.01267  Uiso   1.00
N151   N     0.83413   0.34506   0.94828   0.01267  Uiso   1.00
N152   N     0.89975   0.37110   0.92679   0.01267  Uiso   1.00
N153   N     0.68847   0.23574   0.80882   0.01267  Uiso   1.00
N154   N     0.70204   0.29028   0.79427   0.01267  Uiso   1.00
N155   N     0.57724   0.09668   0.76209   0.01267  Uiso   1.00
N156   N     0.38933   0.84886   0.75653   0.01267  Uiso   1.00
N157   N     0.75486   0.71252   0.20339   0.01267  Uiso   1.00
N158   N     0.76779   0.66178   0.20961   0.01267  Uiso   1.00
N159   N     0.65702   0.62684   0.05232   0.01267  Uiso   1.00
N160   N     0.59466   0.58392   0.06907   0.01267  Uiso   1.00
N161   N     0.41624   0.54788   0.97672   0.01267  Uiso   1.00
N162   N     0.41490   0.52440   0.01268   0.01267  Uiso   1.00
N163   N     0.66587   0.65494   0.94828   0.01267  Uiso   1.00
N164   N     0.60025   0.62890   0.92679   0.01267  Uiso   1.00
N165   N     0.81153   0.76426   0.80882   0.01267  Uiso   1.00
N166   N     0.79796   0.70972   0.79427   0.01267  Uiso   1.00
N167   N     0.92276   0.90332   0.76209   0.01267  Uiso   1.00
N168   N     0.11067   0.15114   0.75653   0.01267  Uiso   1.00
N169   N     0.54234   0.28748   0.29661   0.01267  Uiso   1.00
N170   N     0.60601   0.33822   0.29039   0.01267  Uiso   1.00
N171   N     0.53018   0.37316   0.44768   0.01267  Uiso   1.00
N172   N     0.51074   0.41608   0.43093   0.01267  Uiso   1.00
N173   N     0.36836   0.45212   0.52328   0.01267  Uiso   1.00
N174   N     0.39050   0.47560   0.48732   0.01267  Uiso   1.00
N175   N     0.51093   0.34506   0.55172   0.01267  Uiso   1.00
N176   N     0.47135   0.37110   0.57321   0.01267  Uiso   1.00
N177   N     0.54727   0.23574   0.69118   0.01267  Uiso   1.00
N178   N     0.58824   0.29028   0.70573   0.01267  Uiso   1.00
N179   N     0.51944   0.09668   0.73791   0.01267  Uiso   1.00
N180   N     0.45953   0.84886   0.74347   0.01267  Uiso   1.00
N181   N     0.95766   0.71252   0.29661   0.01267  Uiso   1.00
N182   N     0.89399   0.66178   0.29039   0.01267  Uiso   1.00
N183   N     0.96982   0.62684   0.44768   0.01267  Uiso   1.00
N184   N     0.98926   0.58392   0.43093   0.01267  Uiso   1.00
N185   N     0.13164   0.54788   0.52328   0.01267  Uiso   1.00
N186   N     0.10950   0.52440   0.48732   0.01267  Uiso   1.00
N187   N     0.98907   0.65494   0.55172   0.01267  Uiso   1.00
N188   N     0.02865   0.62890   0.57321   0.01267  Uiso   1.00
N189   N     0.95273   0.76426   0.69118   0.01267  Uiso   1.00
N190   N     0.91176   0.70972   0.70573   0.01267  Uiso   1.00
N191   N     0.98056   0.90332   0.73791   0.01267  Uiso   1.00
N192   N     0.04047   0.15114   0.74347   0.01267  Uiso   1.00
