data_LOQSIU_clean
_audit_creation_date              2014-07-02
_audit_creation_method            'Materials Studio'
_symmetry_space_group_name_H-M    'P1'
_symmetry_Int_Tables_number       1
_symmetry_cell_setting            triclinic
loop_
_symmetry_equiv_pos_as_xyz
  x,y,z
_cell_length_a                    24.2577
_cell_length_b                    24.2577
_cell_length_c                    24.2577
_cell_angle_alpha                 109.4360
_cell_angle_beta                  109.4360
_cell_angle_gamma                 109.4360
loop_
_atom_site_label
_atom_site_type_symbol
_atom_site_fract_x
_atom_site_fract_y
_atom_site_fract_z
_atom_site_U_iso_or_equiv
_atom_site_adp_type
_atom_site_occupancy
Eu1    Eu    0.59952   0.64814   0.14815   0.01267  Uiso   1.00
Eu2    Eu    0.64815   0.14814   0.09952   0.01267  Uiso   1.00
H1     H     0.79120   0.61160   0.28480   0.01267  Uiso   1.00
H2     H     0.68560   0.32520   0.32670   0.01267  Uiso   1.00
H3     H     0.80810   0.53120   0.33240   0.01267  Uiso   1.00
H4     H     0.79410   0.46370   0.33410   0.01267  Uiso   1.00
H5     H     0.84550   0.62250   0.46170   0.01267  Uiso   1.00
H6     H     0.77730   0.60820   0.46170   0.01267  Uiso   1.00
H7     H     0.67360   0.49280   0.37120   0.01267  Uiso   1.00
H8     H     0.69130   0.50630   0.31840   0.01267  Uiso   1.00
H9     H     0.83090   0.50880   0.47300   0.01267  Uiso   1.00
H10    H     0.75910   0.44390   0.42070   0.01267  Uiso   1.00
H11    H     0.86200   0.47340   0.29460   0.01267  Uiso   1.00
H12    H     0.93800   0.45470   0.26610   0.01267  Uiso   1.00
H13    H     0.03840   0.48570   0.34920   0.01267  Uiso   1.00
H14    H     0.07540   0.55780   0.45730   0.01267  Uiso   1.00
H15    H     0.82890   0.71750   0.50210   0.01267  Uiso   1.00
H16    H     0.83640   0.82040   0.52910   0.01267  Uiso   1.00
H17    H     0.78800   0.83920   0.44710   0.01267  Uiso   1.00
H18    H     0.74700   0.76660   0.33900   0.01267  Uiso   1.00
H19    H     0.66940   0.53400   0.16830   0.01267  Uiso   1.00
H20    H     0.72670   0.57500   0.15760   0.01267  Uiso   1.00
H21    H     0.66000   0.42920   0.16760   0.01267  Uiso   1.00
H22    H     0.69990   0.35520   0.15580   0.01267  Uiso   1.00
H23    H     0.78370   0.37130   0.12940   0.01267  Uiso   1.00
H24    H     0.85230   0.47630   0.15140   0.01267  Uiso   1.00
H25    H     0.82440   0.55820   0.18290   0.01267  Uiso   1.00
H26    H     0.58160   0.43540   0.25570   0.01267  Uiso   1.00
H27    H     0.47230   0.35490   0.16410   0.01267  Uiso   1.00
H28    H     0.46060   0.25740   0.09030   0.01267  Uiso   1.00
H29    H     0.53050   0.22010   0.12580   0.01267  Uiso   1.00
H30    H     0.77080   0.30360   0.28770   0.01267  Uiso   1.00
H31    H     0.72700   0.23800   0.28640   0.01267  Uiso   1.00
H32    H     0.85810   0.37700   0.36730   0.01267  Uiso   1.00
H33    H     0.94240   0.43630   0.47630   0.01267  Uiso   1.00
H34    H     0.92080   0.42410   0.55810   0.01267  Uiso   1.00
H35    H     0.82710   0.32630   0.52490   0.01267  Uiso   1.00
H36    H     0.73980   0.27040   0.41700   0.01267  Uiso   1.00
H37    H     0.82820   0.47400   0.54140   0.01267  Uiso   1.00
H38    H     0.83570   0.45660   0.62990   0.01267  Uiso   1.00
H39    H     0.81570   0.51890   0.70640   0.01267  Uiso   1.00
H40    H     0.73490   0.54380   0.66360   0.01267  Uiso   1.00
H41    H     0.78480   0.11160   0.29120   0.01267  Uiso   1.00
H42    H     0.82670   0.82520   0.18560   0.01267  Uiso   1.00
H43    H     0.83240   0.03120   0.30810   0.01267  Uiso   1.00
H44    H     0.83410   0.96370   0.29410   0.01267  Uiso   1.00
H45    H     0.96170   0.12250   0.34550   0.01267  Uiso   1.00
H46    H     0.96170   0.10820   0.27730   0.01267  Uiso   1.00
H47    H     0.87120   0.99280   0.17360   0.01267  Uiso   1.00
H48    H     0.81840   0.00630   0.19130   0.01267  Uiso   1.00
H49    H     0.97300   0.00880   0.33090   0.01267  Uiso   1.00
H50    H     0.92070   0.94390   0.25910   0.01267  Uiso   1.00
H51    H     0.79460   0.97340   0.36200   0.01267  Uiso   1.00
H52    H     0.76610   0.95470   0.43800   0.01267  Uiso   1.00
H53    H     0.84920   0.98570   0.53840   0.01267  Uiso   1.00
H54    H     0.95730   0.05780   0.57540   0.01267  Uiso   1.00
H55    H     0.00210   0.21750   0.32890   0.01267  Uiso   1.00
H56    H     0.02910   0.32040   0.33640   0.01267  Uiso   1.00
H57    H     0.94710   0.33920   0.28800   0.01267  Uiso   1.00
H58    H     0.83900   0.26660   0.24700   0.01267  Uiso   1.00
H59    H     0.66830   0.03400   0.16940   0.01267  Uiso   1.00
H60    H     0.65760   0.07500   0.22670   0.01267  Uiso   1.00
H61    H     0.66760   0.92920   0.16000   0.01267  Uiso   1.00
H62    H     0.65580   0.85520   0.19990   0.01267  Uiso   1.00
H63    H     0.62940   0.87130   0.28370   0.01267  Uiso   1.00
H64    H     0.65140   0.97630   0.35230   0.01267  Uiso   1.00
H65    H     0.68290   0.05820   0.32440   0.01267  Uiso   1.00
H66    H     0.75570   0.93540   0.08160   0.01267  Uiso   1.00
H67    H     0.66410   0.85490   0.97230   0.01267  Uiso   1.00
H68    H     0.59030   0.75740   0.96060   0.01267  Uiso   1.00
H69    H     0.62580   0.72010   0.03050   0.01267  Uiso   1.00
H70    H     0.78770   0.80360   0.27080   0.01267  Uiso   1.00
H71    H     0.78640   0.73800   0.22700   0.01267  Uiso   1.00
H72    H     0.86730   0.87700   0.35810   0.01267  Uiso   1.00
H73    H     0.97630   0.93630   0.44240   0.01267  Uiso   1.00
H74    H     0.05810   0.92410   0.42080   0.01267  Uiso   1.00
H75    H     0.02490   0.82630   0.32710   0.01267  Uiso   1.00
H76    H     0.91700   0.77040   0.23980   0.01267  Uiso   1.00
H77    H     0.04140   0.97400   0.32820   0.01267  Uiso   1.00
H78    H     0.12990   0.95660   0.33570   0.01267  Uiso   1.00
H79    H     0.20640   0.01890   0.31570   0.01267  Uiso   1.00
H80    H     0.16360   0.04380   0.23490   0.01267  Uiso   1.00
C1     C     0.77140   0.52310   0.39760   0.01267  Uiso   1.00
C2     C     0.81160   0.51160   0.36140   0.01267  Uiso   1.00
C3     C     0.79690   0.59800   0.43340   0.01267  Uiso   1.00
C4     C     0.69920   0.48810   0.34850   0.01267  Uiso   1.00
C5     C     0.78330   0.49280   0.44600   0.01267  Uiso   1.00
C6     C     0.98850   0.55310   0.44180   0.01267  Uiso   1.00
C7     C     0.92660   0.53050   0.39220   0.01267  Uiso   1.00
C8     C     0.90610   0.49150   0.32780   0.01267  Uiso   1.00
C9     C     0.94990   0.47820   0.31110   0.01267  Uiso   1.00
C10    C     0.00990   0.49920   0.36000   0.01267  Uiso   1.00
C11    C     0.03110   0.53950   0.42450   0.01267  Uiso   1.00
C12    C     0.72930   0.64720   0.27360   0.01267  Uiso   1.00
C13    C     0.75920   0.69480   0.35300   0.01267  Uiso   1.00
C14    C     0.78420   0.68170   0.40350   0.01267  Uiso   1.00
C15    C     0.81200   0.72740   0.46830   0.01267  Uiso   1.00
C16    C     0.81530   0.78750   0.48410   0.01267  Uiso   1.00
C17    C     0.78880   0.79910   0.43600   0.01267  Uiso   1.00
C18    C     0.76290   0.75520   0.37170   0.01267  Uiso   1.00
C19    C     0.71750   0.55500   0.18440   0.01267  Uiso   1.00
C20    C     0.73980   0.50290   0.17820   0.01267  Uiso   1.00
C21    C     0.70040   0.44020   0.16720   0.01267  Uiso   1.00
C22    C     0.72180   0.39480   0.15580   0.01267  Uiso   1.00
C23    C     0.77470   0.40610   0.14470   0.01267  Uiso   1.00
C24    C     0.81410   0.46720   0.15580   0.01267  Uiso   1.00
C25    C     0.79650   0.51510   0.17350   0.01267  Uiso   1.00
C26    C     0.64650   0.27470   0.22910   0.01267  Uiso   1.00
C27    C     0.60260   0.30660   0.21200   0.01267  Uiso   1.00
C28    C     0.61400   0.36950   0.25080   0.01267  Uiso   1.00
C29    C     0.56990   0.39060   0.23120   0.01267  Uiso   1.00
C30    C     0.50690   0.34490   0.17400   0.01267  Uiso   1.00
C31    C     0.49830   0.28490   0.13340   0.01267  Uiso   1.00
C32    C     0.54160   0.26400   0.15270   0.01267  Uiso   1.00
C33    C     0.74510   0.28640   0.30720   0.01267  Uiso   1.00
C34    C     0.78900   0.31900   0.38130   0.01267  Uiso   1.00
C35    C     0.85060   0.36840   0.39960   0.01267  Uiso   1.00
C36    C     0.90010   0.40420   0.46430   0.01267  Uiso   1.00
C37    C     0.88910   0.39410   0.51270   0.01267  Uiso   1.00
C38    C     0.83150   0.33940   0.49390   0.01267  Uiso   1.00
C39    C     0.78100   0.30480   0.42930   0.01267  Uiso   1.00
C40    C     0.74310   0.53770   0.58410   0.01267  Uiso   1.00
C41    C     0.76960   0.51350   0.54700   0.01267  Uiso   1.00
C42    C     0.80800   0.48770   0.56560   0.01267  Uiso   1.00
C43    C     0.81670   0.48230   0.62080   0.01267  Uiso   1.00
C44    C     0.79890   0.51230   0.66290   0.01267  Uiso   1.00
C45    C     0.75640   0.53270   0.64000   0.01267  Uiso   1.00
C46    C     0.89760   0.02310   0.27140   0.01267  Uiso   1.00
C47    C     0.86140   0.01160   0.31160   0.01267  Uiso   1.00
C48    C     0.93340   0.09800   0.29690   0.01267  Uiso   1.00
C49    C     0.84850   0.98810   0.19920   0.01267  Uiso   1.00
C50    C     0.94600   0.99280   0.28330   0.01267  Uiso   1.00
C51    C     0.94180   0.05310   0.48850   0.01267  Uiso   1.00
C52    C     0.89220   0.03050   0.42660   0.01267  Uiso   1.00
C53    C     0.82780   0.99150   0.40610   0.01267  Uiso   1.00
C54    C     0.81110   0.97820   0.44990   0.01267  Uiso   1.00
C55    C     0.86000   0.99920   0.50990   0.01267  Uiso   1.00
C56    C     0.92450   0.03950   0.53110   0.01267  Uiso   1.00
C57    C     0.77360   0.14720   0.22930   0.01267  Uiso   1.00
C58    C     0.85300   0.19480   0.25920   0.01267  Uiso   1.00
C59    C     0.90350   0.18170   0.28420   0.01267  Uiso   1.00
C60    C     0.96830   0.22740   0.31200   0.01267  Uiso   1.00
C61    C     0.98410   0.28750   0.31530   0.01267  Uiso   1.00
C62    C     0.93600   0.29910   0.28880   0.01267  Uiso   1.00
C63    C     0.87170   0.25520   0.26290   0.01267  Uiso   1.00
C64    C     0.68440   0.05500   0.21750   0.01267  Uiso   1.00
C65    C     0.67820   0.00290   0.23980   0.01267  Uiso   1.00
C66    C     0.66720   0.94020   0.20040   0.01267  Uiso   1.00
C67    C     0.65580   0.89480   0.22180   0.01267  Uiso   1.00
C68    C     0.64470   0.90610   0.27470   0.01267  Uiso   1.00
C69    C     0.65580   0.96720   0.31410   0.01267  Uiso   1.00
C70    C     0.67350   0.01510   0.29650   0.01267  Uiso   1.00
C71    C     0.72910   0.77470   0.14650   0.01267  Uiso   1.00
C72    C     0.71200   0.80660   0.10260   0.01267  Uiso   1.00
C73    C     0.75080   0.86950   0.11400   0.01267  Uiso   1.00
C74    C     0.73120   0.89060   0.06990   0.01267  Uiso   1.00
C75    C     0.67400   0.84490   0.00690   0.01267  Uiso   1.00
C76    C     0.63340   0.78490   0.99830   0.01267  Uiso   1.00
C77    C     0.65270   0.76400   0.04160   0.01267  Uiso   1.00
C78    C     0.80720   0.78640   0.24510   0.01267  Uiso   1.00
C79    C     0.88130   0.81900   0.28900   0.01267  Uiso   1.00
C80    C     0.89960   0.86840   0.35060   0.01267  Uiso   1.00
C81    C     0.96430   0.90420   0.40010   0.01267  Uiso   1.00
C82    C     0.01270   0.89410   0.38910   0.01267  Uiso   1.00
C83    C     0.99390   0.83940   0.33150   0.01267  Uiso   1.00
C84    C     0.92930   0.80480   0.28100   0.01267  Uiso   1.00
C85    C     0.08410   0.03770   0.24310   0.01267  Uiso   1.00
C86    C     0.04700   0.01350   0.26960   0.01267  Uiso   1.00
C87    C     0.06560   0.98770   0.30800   0.01267  Uiso   1.00
C88    C     0.12080   0.98230   0.31670   0.01267  Uiso   1.00
C89    C     0.16290   0.01230   0.29890   0.01267  Uiso   1.00
C90    C     0.14000   0.03270   0.25640   0.01267  Uiso   1.00
N1     N     0.49230   0.52820   0.12220   0.01267  Uiso   1.00
N2     N     0.60830   0.73990   0.26400   0.01267  Uiso   1.00
N3     N     0.51430   0.67260   0.05540   0.01267  Uiso   1.00
N4     N     0.75520   0.60700   0.25610   0.01267  Uiso   1.00
N5     N     0.68990   0.30140   0.29490   0.01267  Uiso   1.00
N6     N     0.75610   0.10700   0.25520   0.01267  Uiso   1.00
N7     N     0.79490   0.80140   0.18990   0.01267  Uiso   1.00
N8     N     0.62220   0.02820   0.99230   0.01267  Uiso   1.00
N9     N     0.76400   0.23990   0.10830   0.01267  Uiso   1.00
N10    N     0.55540   0.17260   0.01430   0.01267  Uiso   1.00
O1     O     0.47850   0.55590   0.08850   0.01267  Uiso   1.00
O2     O     0.55230   0.54960   0.16260   0.01267  Uiso   1.00
O3     O     0.44900   0.46910   0.10340   0.01267  Uiso   1.00
O4     O     0.64850   0.76060   0.24540   0.01267  Uiso   1.00
O5     O     0.56640   0.67900   0.23570   0.01267  Uiso   1.00
O6     O     0.60400   0.78300   0.30710   0.01267  Uiso   1.00
O7     O     0.53630   0.70620   0.11740   0.01267  Uiso   1.00
O8     O     0.53800   0.63510   0.03530   0.01267  Uiso   1.00
O9     O     0.48380   0.68840   0.01640   0.01267  Uiso   1.00
O10    O     0.88310   0.54500   0.41520   0.01267  Uiso   1.00
O11    O     0.77800   0.61800   0.38340   0.01267  Uiso   1.00
O12    O     0.67860   0.41190   0.30790   0.01267  Uiso   1.00
O13    O     0.75470   0.51980   0.49050   0.01267  Uiso   1.00
O14    O     0.68680   0.65080   0.23030   0.01267  Uiso   1.00
O15    O     0.64580   0.22730   0.18510   0.01267  Uiso   1.00
O16    O     0.91520   0.04500   0.38310   0.01267  Uiso   1.00
O17    O     0.88340   0.11800   0.27800   0.01267  Uiso   1.00
O18    O     0.80790   0.91190   0.17860   0.01267  Uiso   1.00
O19    O     0.99050   0.01980   0.25470   0.01267  Uiso   1.00
O20    O     0.73030   0.15080   0.18680   0.01267  Uiso   1.00
O21    O     0.68510   0.72730   0.14580   0.01267  Uiso   1.00
O22    O     0.58850   0.05590   0.97850   0.01267  Uiso   1.00
O23    O     0.66260   0.04960   0.05230   0.01267  Uiso   1.00
O24    O     0.60340   0.96910   0.94900   0.01267  Uiso   1.00
O25    O     0.74540   0.26060   0.14850   0.01267  Uiso   1.00
O26    O     0.73570   0.17900   0.06640   0.01267  Uiso   1.00
O27    O     0.80710   0.28300   0.10400   0.01267  Uiso   1.00
O28    O     0.61740   0.20620   0.03630   0.01267  Uiso   1.00
O29    O     0.53530   0.13510   0.03800   0.01267  Uiso   1.00
O30    O     0.51640   0.18840   0.98380   0.01267  Uiso   1.00
Eu3    Eu    0.14815   0.59952   0.64814   0.01267  Uiso   1.00
Eu4    Eu    0.09952   0.64815   0.14814   0.01267  Uiso   1.00
H81    H     0.28480   0.79120   0.61160   0.01267  Uiso   1.00
H82    H     0.32670   0.68560   0.32520   0.01267  Uiso   1.00
H83    H     0.33240   0.80810   0.53120   0.01267  Uiso   1.00
H84    H     0.33410   0.79410   0.46370   0.01267  Uiso   1.00
H85    H     0.46170   0.84550   0.62250   0.01267  Uiso   1.00
H86    H     0.46170   0.77730   0.60820   0.01267  Uiso   1.00
H87    H     0.37120   0.67360   0.49280   0.01267  Uiso   1.00
H88    H     0.31840   0.69130   0.50630   0.01267  Uiso   1.00
H89    H     0.47300   0.83090   0.50880   0.01267  Uiso   1.00
H90    H     0.42070   0.75910   0.44390   0.01267  Uiso   1.00
H91    H     0.29460   0.86200   0.47340   0.01267  Uiso   1.00
H92    H     0.26610   0.93800   0.45470   0.01267  Uiso   1.00
H93    H     0.34920   0.03840   0.48570   0.01267  Uiso   1.00
H94    H     0.45730   0.07540   0.55780   0.01267  Uiso   1.00
H95    H     0.50210   0.82890   0.71750   0.01267  Uiso   1.00
H96    H     0.52910   0.83640   0.82040   0.01267  Uiso   1.00
H97    H     0.44710   0.78800   0.83920   0.01267  Uiso   1.00
H98    H     0.33900   0.74700   0.76660   0.01267  Uiso   1.00
H99    H     0.16830   0.66940   0.53400   0.01267  Uiso   1.00
H100   H     0.15760   0.72670   0.57500   0.01267  Uiso   1.00
H101   H     0.16760   0.66000   0.42920   0.01267  Uiso   1.00
H102   H     0.15580   0.69990   0.35520   0.01267  Uiso   1.00
H103   H     0.12940   0.78370   0.37130   0.01267  Uiso   1.00
H104   H     0.15140   0.85230   0.47630   0.01267  Uiso   1.00
H105   H     0.18290   0.82440   0.55820   0.01267  Uiso   1.00
H106   H     0.25570   0.58160   0.43540   0.01267  Uiso   1.00
H107   H     0.16410   0.47230   0.35490   0.01267  Uiso   1.00
H108   H     0.09030   0.46060   0.25740   0.01267  Uiso   1.00
H109   H     0.12580   0.53050   0.22010   0.01267  Uiso   1.00
H110   H     0.28770   0.77080   0.30360   0.01267  Uiso   1.00
H111   H     0.28640   0.72700   0.23800   0.01267  Uiso   1.00
H112   H     0.36730   0.85810   0.37700   0.01267  Uiso   1.00
H113   H     0.47630   0.94240   0.43630   0.01267  Uiso   1.00
H114   H     0.55810   0.92080   0.42410   0.01267  Uiso   1.00
H115   H     0.52490   0.82710   0.32630   0.01267  Uiso   1.00
H116   H     0.41700   0.73980   0.27040   0.01267  Uiso   1.00
H117   H     0.54140   0.82820   0.47400   0.01267  Uiso   1.00
H118   H     0.62990   0.83570   0.45660   0.01267  Uiso   1.00
H119   H     0.70640   0.81570   0.51890   0.01267  Uiso   1.00
H120   H     0.66360   0.73490   0.54380   0.01267  Uiso   1.00
H121   H     0.29120   0.78480   0.11160   0.01267  Uiso   1.00
H122   H     0.18560   0.82670   0.82520   0.01267  Uiso   1.00
H123   H     0.30810   0.83240   0.03120   0.01267  Uiso   1.00
H124   H     0.29410   0.83410   0.96370   0.01267  Uiso   1.00
H125   H     0.34550   0.96170   0.12250   0.01267  Uiso   1.00
H126   H     0.27730   0.96170   0.10820   0.01267  Uiso   1.00
H127   H     0.17360   0.87120   0.99280   0.01267  Uiso   1.00
H128   H     0.19130   0.81840   0.00630   0.01267  Uiso   1.00
H129   H     0.33090   0.97300   0.00880   0.01267  Uiso   1.00
H130   H     0.25910   0.92070   0.94390   0.01267  Uiso   1.00
H131   H     0.36200   0.79460   0.97340   0.01267  Uiso   1.00
H132   H     0.43800   0.76610   0.95470   0.01267  Uiso   1.00
H133   H     0.53840   0.84920   0.98570   0.01267  Uiso   1.00
H134   H     0.57540   0.95730   0.05780   0.01267  Uiso   1.00
H135   H     0.32890   0.00210   0.21750   0.01267  Uiso   1.00
H136   H     0.33640   0.02910   0.32040   0.01267  Uiso   1.00
H137   H     0.28800   0.94710   0.33920   0.01267  Uiso   1.00
H138   H     0.24700   0.83900   0.26660   0.01267  Uiso   1.00
H139   H     0.16940   0.66830   0.03400   0.01267  Uiso   1.00
H140   H     0.22670   0.65760   0.07500   0.01267  Uiso   1.00
H141   H     0.16000   0.66760   0.92920   0.01267  Uiso   1.00
H142   H     0.19990   0.65580   0.85520   0.01267  Uiso   1.00
H143   H     0.28370   0.62940   0.87130   0.01267  Uiso   1.00
H144   H     0.35230   0.65140   0.97630   0.01267  Uiso   1.00
H145   H     0.32440   0.68290   0.05820   0.01267  Uiso   1.00
H146   H     0.08160   0.75570   0.93540   0.01267  Uiso   1.00
H147   H     0.97230   0.66410   0.85490   0.01267  Uiso   1.00
H148   H     0.96060   0.59030   0.75740   0.01267  Uiso   1.00
H149   H     0.03050   0.62580   0.72010   0.01267  Uiso   1.00
H150   H     0.27080   0.78770   0.80360   0.01267  Uiso   1.00
H151   H     0.22700   0.78640   0.73800   0.01267  Uiso   1.00
H152   H     0.35810   0.86730   0.87700   0.01267  Uiso   1.00
H153   H     0.44240   0.97630   0.93630   0.01267  Uiso   1.00
H154   H     0.42080   0.05810   0.92410   0.01267  Uiso   1.00
H155   H     0.32710   0.02490   0.82630   0.01267  Uiso   1.00
H156   H     0.23980   0.91700   0.77040   0.01267  Uiso   1.00
H157   H     0.32820   0.04140   0.97400   0.01267  Uiso   1.00
H158   H     0.33570   0.12990   0.95660   0.01267  Uiso   1.00
H159   H     0.31570   0.20640   0.01890   0.01267  Uiso   1.00
H160   H     0.23490   0.16360   0.04380   0.01267  Uiso   1.00
C91    C     0.39760   0.77140   0.52310   0.01267  Uiso   1.00
C92    C     0.36140   0.81160   0.51160   0.01267  Uiso   1.00
C93    C     0.43340   0.79690   0.59800   0.01267  Uiso   1.00
C94    C     0.34850   0.69920   0.48810   0.01267  Uiso   1.00
C95    C     0.44600   0.78330   0.49280   0.01267  Uiso   1.00
C96    C     0.44180   0.98850   0.55310   0.01267  Uiso   1.00
C97    C     0.39220   0.92660   0.53050   0.01267  Uiso   1.00
C98    C     0.32780   0.90610   0.49150   0.01267  Uiso   1.00
C99    C     0.31110   0.94990   0.47820   0.01267  Uiso   1.00
C100   C     0.36000   0.00990   0.49920   0.01267  Uiso   1.00
C101   C     0.42450   0.03110   0.53950   0.01267  Uiso   1.00
C102   C     0.27360   0.72930   0.64720   0.01267  Uiso   1.00
C103   C     0.35300   0.75920   0.69480   0.01267  Uiso   1.00
C104   C     0.40350   0.78420   0.68170   0.01267  Uiso   1.00
C105   C     0.46830   0.81200   0.72740   0.01267  Uiso   1.00
C106   C     0.48410   0.81530   0.78750   0.01267  Uiso   1.00
C107   C     0.43600   0.78880   0.79910   0.01267  Uiso   1.00
C108   C     0.37170   0.76290   0.75520   0.01267  Uiso   1.00
C109   C     0.18440   0.71750   0.55500   0.01267  Uiso   1.00
C110   C     0.17820   0.73980   0.50290   0.01267  Uiso   1.00
C111   C     0.16720   0.70040   0.44020   0.01267  Uiso   1.00
C112   C     0.15580   0.72180   0.39480   0.01267  Uiso   1.00
C113   C     0.14470   0.77470   0.40610   0.01267  Uiso   1.00
C114   C     0.15580   0.81410   0.46720   0.01267  Uiso   1.00
C115   C     0.17350   0.79650   0.51510   0.01267  Uiso   1.00
C116   C     0.22910   0.64650   0.27470   0.01267  Uiso   1.00
C117   C     0.21200   0.60260   0.30660   0.01267  Uiso   1.00
C118   C     0.25080   0.61400   0.36950   0.01267  Uiso   1.00
C119   C     0.23120   0.56990   0.39060   0.01267  Uiso   1.00
C120   C     0.17400   0.50690   0.34490   0.01267  Uiso   1.00
C121   C     0.13340   0.49830   0.28490   0.01267  Uiso   1.00
C122   C     0.15270   0.54160   0.26400   0.01267  Uiso   1.00
C123   C     0.30720   0.74510   0.28640   0.01267  Uiso   1.00
C124   C     0.38130   0.78900   0.31900   0.01267  Uiso   1.00
C125   C     0.39960   0.85060   0.36840   0.01267  Uiso   1.00
C126   C     0.46430   0.90010   0.40420   0.01267  Uiso   1.00
C127   C     0.51270   0.88910   0.39410   0.01267  Uiso   1.00
C128   C     0.49390   0.83150   0.33940   0.01267  Uiso   1.00
C129   C     0.42930   0.78100   0.30480   0.01267  Uiso   1.00
C130   C     0.58410   0.74310   0.53770   0.01267  Uiso   1.00
C131   C     0.54700   0.76960   0.51350   0.01267  Uiso   1.00
C132   C     0.56560   0.80800   0.48770   0.01267  Uiso   1.00
C133   C     0.62080   0.81670   0.48230   0.01267  Uiso   1.00
C134   C     0.66290   0.79890   0.51230   0.01267  Uiso   1.00
C135   C     0.64000   0.75640   0.53270   0.01267  Uiso   1.00
C136   C     0.27140   0.89760   0.02310   0.01267  Uiso   1.00
C137   C     0.31160   0.86140   0.01160   0.01267  Uiso   1.00
C138   C     0.29690   0.93340   0.09800   0.01267  Uiso   1.00
C139   C     0.19920   0.84850   0.98810   0.01267  Uiso   1.00
C140   C     0.28330   0.94600   0.99280   0.01267  Uiso   1.00
C141   C     0.48850   0.94180   0.05310   0.01267  Uiso   1.00
C142   C     0.42660   0.89220   0.03050   0.01267  Uiso   1.00
C143   C     0.40610   0.82780   0.99150   0.01267  Uiso   1.00
C144   C     0.44990   0.81110   0.97820   0.01267  Uiso   1.00
C145   C     0.50990   0.86000   0.99920   0.01267  Uiso   1.00
C146   C     0.53110   0.92450   0.03950   0.01267  Uiso   1.00
C147   C     0.22930   0.77360   0.14720   0.01267  Uiso   1.00
C148   C     0.25920   0.85300   0.19480   0.01267  Uiso   1.00
C149   C     0.28420   0.90350   0.18170   0.01267  Uiso   1.00
C150   C     0.31200   0.96830   0.22740   0.01267  Uiso   1.00
C151   C     0.31530   0.98410   0.28750   0.01267  Uiso   1.00
C152   C     0.28880   0.93600   0.29910   0.01267  Uiso   1.00
C153   C     0.26290   0.87170   0.25520   0.01267  Uiso   1.00
C154   C     0.21750   0.68440   0.05500   0.01267  Uiso   1.00
C155   C     0.23980   0.67820   0.00290   0.01267  Uiso   1.00
C156   C     0.20040   0.66720   0.94020   0.01267  Uiso   1.00
C157   C     0.22180   0.65580   0.89480   0.01267  Uiso   1.00
C158   C     0.27470   0.64470   0.90610   0.01267  Uiso   1.00
C159   C     0.31410   0.65580   0.96720   0.01267  Uiso   1.00
C160   C     0.29650   0.67350   0.01510   0.01267  Uiso   1.00
C161   C     0.14650   0.72910   0.77470   0.01267  Uiso   1.00
C162   C     0.10260   0.71200   0.80660   0.01267  Uiso   1.00
C163   C     0.11400   0.75080   0.86950   0.01267  Uiso   1.00
C164   C     0.06990   0.73120   0.89060   0.01267  Uiso   1.00
C165   C     0.00690   0.67400   0.84490   0.01267  Uiso   1.00
C166   C     0.99830   0.63340   0.78490   0.01267  Uiso   1.00
C167   C     0.04160   0.65270   0.76400   0.01267  Uiso   1.00
C168   C     0.24510   0.80720   0.78640   0.01267  Uiso   1.00
C169   C     0.28900   0.88130   0.81900   0.01267  Uiso   1.00
C170   C     0.35060   0.89960   0.86840   0.01267  Uiso   1.00
C171   C     0.40010   0.96430   0.90420   0.01267  Uiso   1.00
C172   C     0.38910   0.01270   0.89410   0.01267  Uiso   1.00
C173   C     0.33150   0.99390   0.83940   0.01267  Uiso   1.00
C174   C     0.28100   0.92930   0.80480   0.01267  Uiso   1.00
C175   C     0.24310   0.08410   0.03770   0.01267  Uiso   1.00
C176   C     0.26960   0.04700   0.01350   0.01267  Uiso   1.00
C177   C     0.30800   0.06560   0.98770   0.01267  Uiso   1.00
C178   C     0.31670   0.12080   0.98230   0.01267  Uiso   1.00
C179   C     0.29890   0.16290   0.01230   0.01267  Uiso   1.00
C180   C     0.25640   0.14000   0.03270   0.01267  Uiso   1.00
N11    N     0.12220   0.49230   0.52820   0.01267  Uiso   1.00
N12    N     0.26400   0.60830   0.73990   0.01267  Uiso   1.00
N13    N     0.05540   0.51430   0.67260   0.01267  Uiso   1.00
N14    N     0.25610   0.75520   0.60700   0.01267  Uiso   1.00
N15    N     0.29490   0.68990   0.30140   0.01267  Uiso   1.00
N16    N     0.99230   0.62220   0.02820   0.01267  Uiso   1.00
N17    N     0.10830   0.76400   0.23990   0.01267  Uiso   1.00
N18    N     0.01430   0.55540   0.17260   0.01267  Uiso   1.00
N19    N     0.25520   0.75610   0.10700   0.01267  Uiso   1.00
N20    N     0.18990   0.79490   0.80140   0.01267  Uiso   1.00
O31    O     0.08850   0.47850   0.55590   0.01267  Uiso   1.00
O32    O     0.16260   0.55230   0.54960   0.01267  Uiso   1.00
O33    O     0.10340   0.44900   0.46910   0.01267  Uiso   1.00
O34    O     0.24540   0.64850   0.76060   0.01267  Uiso   1.00
O35    O     0.23570   0.56640   0.67900   0.01267  Uiso   1.00
O36    O     0.30710   0.60400   0.78300   0.01267  Uiso   1.00
O37    O     0.11740   0.53630   0.70620   0.01267  Uiso   1.00
O38    O     0.03530   0.53800   0.63510   0.01267  Uiso   1.00
O39    O     0.01640   0.48380   0.68840   0.01267  Uiso   1.00
O40    O     0.41520   0.88310   0.54500   0.01267  Uiso   1.00
O41    O     0.38340   0.77800   0.61800   0.01267  Uiso   1.00
O42    O     0.30790   0.67860   0.41190   0.01267  Uiso   1.00
O43    O     0.49050   0.75470   0.51980   0.01267  Uiso   1.00
O44    O     0.23030   0.68680   0.65080   0.01267  Uiso   1.00
O45    O     0.18510   0.64580   0.22730   0.01267  Uiso   1.00
O46    O     0.97850   0.58850   0.05590   0.01267  Uiso   1.00
O47    O     0.05230   0.66260   0.04960   0.01267  Uiso   1.00
O48    O     0.94900   0.60340   0.96910   0.01267  Uiso   1.00
O49    O     0.14850   0.74540   0.26060   0.01267  Uiso   1.00
O50    O     0.06640   0.73570   0.17900   0.01267  Uiso   1.00
O51    O     0.10400   0.80710   0.28300   0.01267  Uiso   1.00
O52    O     0.03630   0.61740   0.20620   0.01267  Uiso   1.00
O53    O     0.03800   0.53530   0.13510   0.01267  Uiso   1.00
O54    O     0.98380   0.51640   0.18840   0.01267  Uiso   1.00
O55    O     0.38310   0.91520   0.04500   0.01267  Uiso   1.00
O56    O     0.27800   0.88340   0.11800   0.01267  Uiso   1.00
O57    O     0.17860   0.80790   0.91190   0.01267  Uiso   1.00
O58    O     0.25470   0.99050   0.01980   0.01267  Uiso   1.00
O59    O     0.18680   0.73030   0.15080   0.01267  Uiso   1.00
O60    O     0.14580   0.68510   0.72730   0.01267  Uiso   1.00
Eu5    Eu    0.64814   0.14815   0.59952   0.01267  Uiso   1.00
Eu6    Eu    0.14814   0.09952   0.64815   0.01267  Uiso   1.00
H161   H     0.61160   0.28480   0.79120   0.01267  Uiso   1.00
H162   H     0.32520   0.32670   0.68560   0.01267  Uiso   1.00
H163   H     0.53120   0.33240   0.80810   0.01267  Uiso   1.00
H164   H     0.46370   0.33410   0.79410   0.01267  Uiso   1.00
H165   H     0.62250   0.46170   0.84550   0.01267  Uiso   1.00
H166   H     0.60820   0.46170   0.77730   0.01267  Uiso   1.00
H167   H     0.49280   0.37120   0.67360   0.01267  Uiso   1.00
H168   H     0.50630   0.31840   0.69130   0.01267  Uiso   1.00
H169   H     0.50880   0.47300   0.83090   0.01267  Uiso   1.00
H170   H     0.44390   0.42070   0.75910   0.01267  Uiso   1.00
H171   H     0.47340   0.29460   0.86200   0.01267  Uiso   1.00
H172   H     0.45470   0.26610   0.93800   0.01267  Uiso   1.00
H173   H     0.48570   0.34920   0.03840   0.01267  Uiso   1.00
H174   H     0.55780   0.45730   0.07540   0.01267  Uiso   1.00
H175   H     0.71750   0.50210   0.82890   0.01267  Uiso   1.00
H176   H     0.82040   0.52910   0.83640   0.01267  Uiso   1.00
H177   H     0.83920   0.44710   0.78800   0.01267  Uiso   1.00
H178   H     0.76660   0.33900   0.74700   0.01267  Uiso   1.00
H179   H     0.53400   0.16830   0.66940   0.01267  Uiso   1.00
H180   H     0.57500   0.15760   0.72670   0.01267  Uiso   1.00
H181   H     0.42920   0.16760   0.66000   0.01267  Uiso   1.00
H182   H     0.35520   0.15580   0.69990   0.01267  Uiso   1.00
H183   H     0.37130   0.12940   0.78370   0.01267  Uiso   1.00
H184   H     0.47630   0.15140   0.85230   0.01267  Uiso   1.00
H185   H     0.55820   0.18290   0.82440   0.01267  Uiso   1.00
H186   H     0.43540   0.25570   0.58160   0.01267  Uiso   1.00
H187   H     0.35490   0.16410   0.47230   0.01267  Uiso   1.00
H188   H     0.25740   0.09030   0.46060   0.01267  Uiso   1.00
H189   H     0.22010   0.12580   0.53050   0.01267  Uiso   1.00
H190   H     0.30360   0.28770   0.77080   0.01267  Uiso   1.00
H191   H     0.23800   0.28640   0.72700   0.01267  Uiso   1.00
H192   H     0.37700   0.36730   0.85810   0.01267  Uiso   1.00
H193   H     0.43630   0.47630   0.94240   0.01267  Uiso   1.00
H194   H     0.42410   0.55810   0.92080   0.01267  Uiso   1.00
H195   H     0.32630   0.52490   0.82710   0.01267  Uiso   1.00
H196   H     0.27040   0.41700   0.73980   0.01267  Uiso   1.00
H197   H     0.47400   0.54140   0.82820   0.01267  Uiso   1.00
H198   H     0.45660   0.62990   0.83570   0.01267  Uiso   1.00
H199   H     0.51890   0.70640   0.81570   0.01267  Uiso   1.00
H200   H     0.54380   0.66360   0.73490   0.01267  Uiso   1.00
H201   H     0.11160   0.29120   0.78480   0.01267  Uiso   1.00
H202   H     0.82520   0.18560   0.82670   0.01267  Uiso   1.00
H203   H     0.03120   0.30810   0.83240   0.01267  Uiso   1.00
H204   H     0.96370   0.29410   0.83410   0.01267  Uiso   1.00
H205   H     0.12250   0.34550   0.96170   0.01267  Uiso   1.00
H206   H     0.10820   0.27730   0.96170   0.01267  Uiso   1.00
H207   H     0.99280   0.17360   0.87120   0.01267  Uiso   1.00
H208   H     0.00630   0.19130   0.81840   0.01267  Uiso   1.00
H209   H     0.00880   0.33090   0.97300   0.01267  Uiso   1.00
H210   H     0.94390   0.25910   0.92070   0.01267  Uiso   1.00
H211   H     0.97340   0.36200   0.79460   0.01267  Uiso   1.00
H212   H     0.95470   0.43800   0.76610   0.01267  Uiso   1.00
H213   H     0.98570   0.53840   0.84920   0.01267  Uiso   1.00
H214   H     0.05780   0.57540   0.95730   0.01267  Uiso   1.00
H215   H     0.21750   0.32890   0.00210   0.01267  Uiso   1.00
H216   H     0.32040   0.33640   0.02910   0.01267  Uiso   1.00
H217   H     0.33920   0.28800   0.94710   0.01267  Uiso   1.00
H218   H     0.26660   0.24700   0.83900   0.01267  Uiso   1.00
H219   H     0.03400   0.16940   0.66830   0.01267  Uiso   1.00
H220   H     0.07500   0.22670   0.65760   0.01267  Uiso   1.00
H221   H     0.92920   0.16000   0.66760   0.01267  Uiso   1.00
H222   H     0.85520   0.19990   0.65580   0.01267  Uiso   1.00
H223   H     0.87130   0.28370   0.62940   0.01267  Uiso   1.00
H224   H     0.97630   0.35230   0.65140   0.01267  Uiso   1.00
H225   H     0.05820   0.32440   0.68290   0.01267  Uiso   1.00
H226   H     0.93540   0.08160   0.75570   0.01267  Uiso   1.00
H227   H     0.85490   0.97230   0.66410   0.01267  Uiso   1.00
H228   H     0.75740   0.96060   0.59030   0.01267  Uiso   1.00
H229   H     0.72010   0.03050   0.62580   0.01267  Uiso   1.00
H230   H     0.80360   0.27080   0.78770   0.01267  Uiso   1.00
H231   H     0.73800   0.22700   0.78640   0.01267  Uiso   1.00
H232   H     0.87700   0.35810   0.86730   0.01267  Uiso   1.00
H233   H     0.93630   0.44240   0.97630   0.01267  Uiso   1.00
H234   H     0.92410   0.42080   0.05810   0.01267  Uiso   1.00
H235   H     0.82630   0.32710   0.02490   0.01267  Uiso   1.00
H236   H     0.77040   0.23980   0.91700   0.01267  Uiso   1.00
H237   H     0.97400   0.32820   0.04140   0.01267  Uiso   1.00
H238   H     0.95660   0.33570   0.12990   0.01267  Uiso   1.00
H239   H     0.01890   0.31570   0.20640   0.01267  Uiso   1.00
H240   H     0.04380   0.23490   0.16360   0.01267  Uiso   1.00
C181   C     0.52310   0.39760   0.77140   0.01267  Uiso   1.00
C182   C     0.51160   0.36140   0.81160   0.01267  Uiso   1.00
C183   C     0.59800   0.43340   0.79690   0.01267  Uiso   1.00
C184   C     0.48810   0.34850   0.69920   0.01267  Uiso   1.00
C185   C     0.49280   0.44600   0.78330   0.01267  Uiso   1.00
C186   C     0.55310   0.44180   0.98850   0.01267  Uiso   1.00
C187   C     0.53050   0.39220   0.92660   0.01267  Uiso   1.00
C188   C     0.49150   0.32780   0.90610   0.01267  Uiso   1.00
C189   C     0.47820   0.31110   0.94990   0.01267  Uiso   1.00
C190   C     0.49920   0.36000   0.00990   0.01267  Uiso   1.00
C191   C     0.53950   0.42450   0.03110   0.01267  Uiso   1.00
C192   C     0.64720   0.27360   0.72930   0.01267  Uiso   1.00
C193   C     0.69480   0.35300   0.75920   0.01267  Uiso   1.00
C194   C     0.68170   0.40350   0.78420   0.01267  Uiso   1.00
C195   C     0.72740   0.46830   0.81200   0.01267  Uiso   1.00
C196   C     0.78750   0.48410   0.81530   0.01267  Uiso   1.00
C197   C     0.79910   0.43600   0.78880   0.01267  Uiso   1.00
C198   C     0.75520   0.37170   0.76290   0.01267  Uiso   1.00
C199   C     0.55500   0.18440   0.71750   0.01267  Uiso   1.00
C200   C     0.50290   0.17820   0.73980   0.01267  Uiso   1.00
C201   C     0.44020   0.16720   0.70040   0.01267  Uiso   1.00
C202   C     0.39480   0.15580   0.72180   0.01267  Uiso   1.00
C203   C     0.40610   0.14470   0.77470   0.01267  Uiso   1.00
C204   C     0.46720   0.15580   0.81410   0.01267  Uiso   1.00
C205   C     0.51510   0.17350   0.79650   0.01267  Uiso   1.00
C206   C     0.27470   0.22910   0.64650   0.01267  Uiso   1.00
C207   C     0.30660   0.21200   0.60260   0.01267  Uiso   1.00
C208   C     0.36950   0.25080   0.61400   0.01267  Uiso   1.00
C209   C     0.39060   0.23120   0.56990   0.01267  Uiso   1.00
C210   C     0.34490   0.17400   0.50690   0.01267  Uiso   1.00
C211   C     0.28490   0.13340   0.49830   0.01267  Uiso   1.00
C212   C     0.26400   0.15270   0.54160   0.01267  Uiso   1.00
C213   C     0.28640   0.30720   0.74510   0.01267  Uiso   1.00
C214   C     0.31900   0.38130   0.78900   0.01267  Uiso   1.00
C215   C     0.36840   0.39960   0.85060   0.01267  Uiso   1.00
C216   C     0.40420   0.46430   0.90010   0.01267  Uiso   1.00
C217   C     0.39410   0.51270   0.88910   0.01267  Uiso   1.00
C218   C     0.33940   0.49390   0.83150   0.01267  Uiso   1.00
C219   C     0.30480   0.42930   0.78100   0.01267  Uiso   1.00
C220   C     0.53770   0.58410   0.74310   0.01267  Uiso   1.00
C221   C     0.51350   0.54700   0.76960   0.01267  Uiso   1.00
C222   C     0.48770   0.56560   0.80800   0.01267  Uiso   1.00
C223   C     0.48230   0.62080   0.81670   0.01267  Uiso   1.00
C224   C     0.51230   0.66290   0.79890   0.01267  Uiso   1.00
C225   C     0.53270   0.64000   0.75640   0.01267  Uiso   1.00
C226   C     0.02310   0.27140   0.89760   0.01267  Uiso   1.00
C227   C     0.01160   0.31160   0.86140   0.01267  Uiso   1.00
C228   C     0.09800   0.29690   0.93340   0.01267  Uiso   1.00
C229   C     0.98810   0.19920   0.84850   0.01267  Uiso   1.00
C230   C     0.99280   0.28330   0.94600   0.01267  Uiso   1.00
C231   C     0.05310   0.48850   0.94180   0.01267  Uiso   1.00
C232   C     0.03050   0.42660   0.89220   0.01267  Uiso   1.00
C233   C     0.99150   0.40610   0.82780   0.01267  Uiso   1.00
C234   C     0.97820   0.44990   0.81110   0.01267  Uiso   1.00
C235   C     0.99920   0.50990   0.86000   0.01267  Uiso   1.00
C236   C     0.03950   0.53110   0.92450   0.01267  Uiso   1.00
C237   C     0.14720   0.22930   0.77360   0.01267  Uiso   1.00
C238   C     0.19480   0.25920   0.85300   0.01267  Uiso   1.00
C239   C     0.18170   0.28420   0.90350   0.01267  Uiso   1.00
C240   C     0.22740   0.31200   0.96830   0.01267  Uiso   1.00
C241   C     0.28750   0.31530   0.98410   0.01267  Uiso   1.00
C242   C     0.29910   0.28880   0.93600   0.01267  Uiso   1.00
C243   C     0.25520   0.26290   0.87170   0.01267  Uiso   1.00
C244   C     0.05500   0.21750   0.68440   0.01267  Uiso   1.00
C245   C     0.00290   0.23980   0.67820   0.01267  Uiso   1.00
C246   C     0.94020   0.20040   0.66720   0.01267  Uiso   1.00
C247   C     0.89480   0.22180   0.65580   0.01267  Uiso   1.00
C248   C     0.90610   0.27470   0.64470   0.01267  Uiso   1.00
C249   C     0.96720   0.31410   0.65580   0.01267  Uiso   1.00
C250   C     0.01510   0.29650   0.67350   0.01267  Uiso   1.00
C251   C     0.77470   0.14650   0.72910   0.01267  Uiso   1.00
C252   C     0.80660   0.10260   0.71200   0.01267  Uiso   1.00
C253   C     0.86950   0.11400   0.75080   0.01267  Uiso   1.00
C254   C     0.89060   0.06990   0.73120   0.01267  Uiso   1.00
C255   C     0.84490   0.00690   0.67400   0.01267  Uiso   1.00
C256   C     0.78490   0.99830   0.63340   0.01267  Uiso   1.00
C257   C     0.76400   0.04160   0.65270   0.01267  Uiso   1.00
C258   C     0.78640   0.24510   0.80720   0.01267  Uiso   1.00
C259   C     0.81900   0.28900   0.88130   0.01267  Uiso   1.00
C260   C     0.86840   0.35060   0.89960   0.01267  Uiso   1.00
C261   C     0.90420   0.40010   0.96430   0.01267  Uiso   1.00
C262   C     0.89410   0.38910   0.01270   0.01267  Uiso   1.00
C263   C     0.83940   0.33150   0.99390   0.01267  Uiso   1.00
C264   C     0.80480   0.28100   0.92930   0.01267  Uiso   1.00
C265   C     0.03770   0.24310   0.08410   0.01267  Uiso   1.00
C266   C     0.01350   0.26960   0.04700   0.01267  Uiso   1.00
C267   C     0.98770   0.30800   0.06560   0.01267  Uiso   1.00
C268   C     0.98230   0.31670   0.12080   0.01267  Uiso   1.00
C269   C     0.01230   0.29890   0.16290   0.01267  Uiso   1.00
C270   C     0.03270   0.25640   0.14000   0.01267  Uiso   1.00
N21    N     0.60700   0.25610   0.75520   0.01267  Uiso   1.00
N22    N     0.30140   0.29490   0.68990   0.01267  Uiso   1.00
N23    N     0.52820   0.12220   0.49230   0.01267  Uiso   1.00
N24    N     0.73990   0.26400   0.60830   0.01267  Uiso   1.00
N25    N     0.67260   0.05540   0.51430   0.01267  Uiso   1.00
N26    N     0.02820   0.99230   0.62220   0.01267  Uiso   1.00
N27    N     0.23990   0.10830   0.76400   0.01267  Uiso   1.00
N28    N     0.17260   0.01430   0.55540   0.01267  Uiso   1.00
N29    N     0.10700   0.25520   0.75610   0.01267  Uiso   1.00
N30    N     0.80140   0.18990   0.79490   0.01267  Uiso   1.00
O61    O     0.54500   0.41520   0.88310   0.01267  Uiso   1.00
O62    O     0.61800   0.38340   0.77800   0.01267  Uiso   1.00
O63    O     0.41190   0.30790   0.67860   0.01267  Uiso   1.00
O64    O     0.51980   0.49050   0.75470   0.01267  Uiso   1.00
O65    O     0.65080   0.23030   0.68680   0.01267  Uiso   1.00
O66    O     0.22730   0.18510   0.64580   0.01267  Uiso   1.00
O67    O     0.55590   0.08850   0.47850   0.01267  Uiso   1.00
O68    O     0.54960   0.16260   0.55230   0.01267  Uiso   1.00
O69    O     0.46910   0.10340   0.44900   0.01267  Uiso   1.00
O70    O     0.76060   0.24540   0.64850   0.01267  Uiso   1.00
O71    O     0.67900   0.23570   0.56640   0.01267  Uiso   1.00
O72    O     0.78300   0.30710   0.60400   0.01267  Uiso   1.00
O73    O     0.70620   0.11740   0.53630   0.01267  Uiso   1.00
O74    O     0.63510   0.03530   0.53800   0.01267  Uiso   1.00
O75    O     0.68840   0.01640   0.48380   0.01267  Uiso   1.00
O76    O     0.05590   0.97850   0.58850   0.01267  Uiso   1.00
O77    O     0.04960   0.05230   0.66260   0.01267  Uiso   1.00
O78    O     0.96910   0.94900   0.60340   0.01267  Uiso   1.00
O79    O     0.26060   0.14850   0.74540   0.01267  Uiso   1.00
O80    O     0.17900   0.06640   0.73570   0.01267  Uiso   1.00
O81    O     0.28300   0.10400   0.80710   0.01267  Uiso   1.00
O82    O     0.20620   0.03630   0.61740   0.01267  Uiso   1.00
O83    O     0.13510   0.03800   0.53530   0.01267  Uiso   1.00
O84    O     0.18840   0.98380   0.51640   0.01267  Uiso   1.00
O85    O     0.04500   0.38310   0.91520   0.01267  Uiso   1.00
O86    O     0.11800   0.27800   0.88340   0.01267  Uiso   1.00
O87    O     0.91190   0.17860   0.80790   0.01267  Uiso   1.00
O88    O     0.01980   0.25470   0.99050   0.01267  Uiso   1.00
O89    O     0.15080   0.18680   0.73030   0.01267  Uiso   1.00
O90    O     0.72730   0.14580   0.68510   0.01267  Uiso   1.00
