data_LUXFEQ_charged
_audit_creation_date              2014-07-02
_audit_creation_method            'Materials Studio'
_symmetry_space_group_name_H-M    'P1'
_symmetry_Int_Tables_number       1
_symmetry_cell_setting            triclinic
loop_
_symmetry_equiv_pos_as_xyz
  x,y,z
_cell_length_a                    26.8328
_cell_length_b                    26.8328
_cell_length_c                    26.8328
_cell_angle_alpha                 98.4403
_cell_angle_beta                  98.4403
_cell_angle_gamma                 98.4403
loop_
_atom_site_label
_atom_site_type_symbol
_atom_site_fract_x
_atom_site_fract_y
_atom_site_fract_z
_atom_site_U_iso_or_equiv
_atom_site_adp_type
_atom_site_occupancy
Na1    Na    0.06150   0.65070   0.32720   0.01267  Uiso   1.00
Na2    Na    0.83930   0.67210   0.26250   0.01267  Uiso   1.00
Na3    Na    0.32720   0.06150   0.65070   0.01267  Uiso   1.00
Na4    Na    0.26250   0.83930   0.67210   0.01267  Uiso   1.00
Na5    Na    0.65070   0.32720   0.06150   0.01267  Uiso   1.00
Na6    Na    0.67210   0.26250   0.83930   0.01267  Uiso   1.00
Na7    Na    0.34930   0.93850   0.67280   0.01267  Uiso   1.00
Na8    Na    0.32790   0.16070   0.73750   0.01267  Uiso   1.00
Na9    Na    0.93850   0.67280   0.34930   0.01267  Uiso   1.00
Na10   Na    0.16070   0.73750   0.32790   0.01267  Uiso   1.00
Na11   Na    0.67280   0.34930   0.93850   0.01267  Uiso   1.00
Na12   Na    0.73750   0.32790   0.16070   0.01267  Uiso   1.00
Na13   Na    0.93850   0.34930   0.67280   0.01267  Uiso   1.00
Na14   Na    0.16070   0.32790   0.73750   0.01267  Uiso   1.00
Na15   Na    0.67280   0.93850   0.34930   0.01267  Uiso   1.00
Na16   Na    0.73750   0.16070   0.32790   0.01267  Uiso   1.00
Na17   Na    0.34930   0.67280   0.93850   0.01267  Uiso   1.00
Na18   Na    0.32790   0.73750   0.16070   0.01267  Uiso   1.00
Na19   Na    0.65070   0.06150   0.32720   0.01267  Uiso   1.00
Na20   Na    0.67210   0.83930   0.26250   0.01267  Uiso   1.00
Na21   Na    0.06150   0.32720   0.65070   0.01267  Uiso   1.00
Na22   Na    0.83930   0.26250   0.67210   0.01267  Uiso   1.00
Na23   Na    0.32720   0.65070   0.06150   0.01267  Uiso   1.00
Na24   Na    0.26250   0.67210   0.83930   0.01267  Uiso   1.00
Cd1    Cd    0.86592   0.65468   0.03055   0.01267  Uiso   1.00
Cd2    Cd    0.04201   0.59622   0.20473   0.01267  Uiso   1.00
Cd3    Cd    0.03055   0.86592   0.65468   0.01267  Uiso   1.00
Cd4    Cd    0.20473   0.04201   0.59622   0.01267  Uiso   1.00
Cd5    Cd    0.65468   0.03055   0.86592   0.01267  Uiso   1.00
Cd6    Cd    0.59622   0.20473   0.04201   0.01267  Uiso   1.00
Cd7    Cd    0.34532   0.13408   0.96945   0.01267  Uiso   1.00
Cd8    Cd    0.40378   0.95799   0.79527   0.01267  Uiso   1.00
Cd9    Cd    0.13408   0.96945   0.34532   0.01267  Uiso   1.00
Cd10   Cd    0.95799   0.79527   0.40378   0.01267  Uiso   1.00
Cd11   Cd    0.96945   0.34532   0.13408   0.01267  Uiso   1.00
Cd12   Cd    0.79527   0.40378   0.95799   0.01267  Uiso   1.00
Cd13   Cd    0.13408   0.34532   0.96945   0.01267  Uiso   1.00
Cd14   Cd    0.95799   0.40378   0.79527   0.01267  Uiso   1.00
Cd15   Cd    0.96945   0.13408   0.34532   0.01267  Uiso   1.00
Cd16   Cd    0.79527   0.95799   0.40378   0.01267  Uiso   1.00
Cd17   Cd    0.34532   0.96945   0.13408   0.01267  Uiso   1.00
Cd18   Cd    0.40378   0.79527   0.95799   0.01267  Uiso   1.00
Cd19   Cd    0.65468   0.86592   0.03055   0.01267  Uiso   1.00
Cd20   Cd    0.59622   0.04201   0.20473   0.01267  Uiso   1.00
Cd21   Cd    0.86592   0.03055   0.65468   0.01267  Uiso   1.00
Cd22   Cd    0.04201   0.20473   0.59622   0.01267  Uiso   1.00
Cd23   Cd    0.03055   0.65468   0.86592   0.01267  Uiso   1.00
Cd24   Cd    0.20473   0.59622   0.04201   0.01267  Uiso   1.00
H1     H     0.97570   0.60180   0.07790   0.01267  Uiso   1.00
H2     H     0.88010   0.52250   0.00260   0.01267  Uiso   1.00
H3     H     0.07790   0.97570   0.60180   0.01267  Uiso   1.00
H4     H     0.00260   0.88010   0.52250   0.01267  Uiso   1.00
H5     H     0.60180   0.07790   0.97570   0.01267  Uiso   1.00
H6     H     0.52250   0.00260   0.88010   0.01267  Uiso   1.00
H7     H     0.39820   0.02430   0.92210   0.01267  Uiso   1.00
H8     H     0.47750   0.11990   0.99740   0.01267  Uiso   1.00
H9     H     0.02430   0.92210   0.39820   0.01267  Uiso   1.00
H10    H     0.11990   0.99740   0.47750   0.01267  Uiso   1.00
H11    H     0.92210   0.39820   0.02430   0.01267  Uiso   1.00
H12    H     0.99740   0.47750   0.11990   0.01267  Uiso   1.00
H13    H     0.02430   0.39820   0.92210   0.01267  Uiso   1.00
H14    H     0.11990   0.47750   0.99740   0.01267  Uiso   1.00
H15    H     0.92210   0.02430   0.39820   0.01267  Uiso   1.00
H16    H     0.99740   0.11990   0.47750   0.01267  Uiso   1.00
H17    H     0.39820   0.92210   0.02430   0.01267  Uiso   1.00
H18    H     0.47750   0.99740   0.11990   0.01267  Uiso   1.00
H19    H     0.60180   0.97570   0.07790   0.01267  Uiso   1.00
H20    H     0.52250   0.88010   0.00260   0.01267  Uiso   1.00
H21    H     0.97570   0.07790   0.60180   0.01267  Uiso   1.00
H22    H     0.88010   0.00260   0.52250   0.01267  Uiso   1.00
H23    H     0.07790   0.60180   0.97570   0.01267  Uiso   1.00
H24    H     0.00260   0.52250   0.88010   0.01267  Uiso   1.00
H25    H     0.95530   0.60470   0.95530   0.01267  Uiso   1.00
H26    H     0.09160   0.55860   0.09160   0.01267  Uiso   1.00
H27    H     0.95530   0.95530   0.60470   0.01267  Uiso   1.00
H28    H     0.09160   0.09160   0.55860   0.01267  Uiso   1.00
H29    H     0.60470   0.95530   0.95530   0.01267  Uiso   1.00
H30    H     0.55860   0.09160   0.09160   0.01267  Uiso   1.00
H31    H     0.39530   0.04470   0.04470   0.01267  Uiso   1.00
H32    H     0.44140   0.90840   0.90840   0.01267  Uiso   1.00
H33    H     0.04470   0.04470   0.39530   0.01267  Uiso   1.00
H34    H     0.90840   0.90840   0.44140   0.01267  Uiso   1.00
H35    H     0.04470   0.39530   0.04470   0.01267  Uiso   1.00
H36    H     0.90840   0.44140   0.90840   0.01267  Uiso   1.00
C1     C     0.92710   0.71070   0.96000   0.01267  Uiso   1.00
C2     C     0.90000   0.74830   0.98160   0.01267  Uiso   1.00
C3     C     0.95940   0.61530   0.10470   0.01267  Uiso   1.00
C4     C     0.90770   0.65250   0.14470   0.01267  Uiso   1.00
C5     C     0.94430   0.63800   0.17960   0.01267  Uiso   1.00
C6     C     0.95140   0.64550   0.23550   0.01267  Uiso   1.00
C7     C     0.86420   0.68030   0.14690   0.01267  Uiso   1.00
C8     C     0.84590   0.52750   0.99280   0.01267  Uiso   1.00
C9     C     0.76400   0.51000   0.96350   0.01267  Uiso   1.00
C10    C     0.78030   0.56270   0.97880   0.01267  Uiso   1.00
C11    C     0.75460   0.60900   0.97950   0.01267  Uiso   1.00
C12    C     0.71540   0.47950   0.94120   0.01267  Uiso   1.00
C13    C     0.14500   0.67190   0.23120   0.01267  Uiso   1.00
C14    C     0.14410   0.64150   0.17850   0.01267  Uiso   1.00
C15    C     0.96000   0.92710   0.71070   0.01267  Uiso   1.00
C16    C     0.98160   0.90000   0.74830   0.01267  Uiso   1.00
C17    C     0.10470   0.95940   0.61530   0.01267  Uiso   1.00
C18    C     0.14470   0.90770   0.65250   0.01267  Uiso   1.00
C19    C     0.17960   0.94430   0.63800   0.01267  Uiso   1.00
C20    C     0.23550   0.95140   0.64550   0.01267  Uiso   1.00
C21    C     0.14690   0.86420   0.68030   0.01267  Uiso   1.00
C22    C     0.99280   0.84590   0.52750   0.01267  Uiso   1.00
C23    C     0.96350   0.76400   0.51000   0.01267  Uiso   1.00
C24    C     0.97880   0.78030   0.56270   0.01267  Uiso   1.00
C25    C     0.97950   0.75460   0.60900   0.01267  Uiso   1.00
C26    C     0.94120   0.71540   0.47950   0.01267  Uiso   1.00
C27    C     0.23120   0.14500   0.67190   0.01267  Uiso   1.00
C28    C     0.17850   0.14410   0.64150   0.01267  Uiso   1.00
C29    C     0.71070   0.96000   0.92710   0.01267  Uiso   1.00
C30    C     0.74830   0.98160   0.90000   0.01267  Uiso   1.00
C31    C     0.61530   0.10470   0.95940   0.01267  Uiso   1.00
C32    C     0.65250   0.14470   0.90770   0.01267  Uiso   1.00
C33    C     0.63800   0.17960   0.94430   0.01267  Uiso   1.00
C34    C     0.64550   0.23550   0.95140   0.01267  Uiso   1.00
C35    C     0.68030   0.14690   0.86420   0.01267  Uiso   1.00
C36    C     0.52750   0.99280   0.84590   0.01267  Uiso   1.00
C37    C     0.51000   0.96350   0.76400   0.01267  Uiso   1.00
C38    C     0.56270   0.97880   0.78030   0.01267  Uiso   1.00
C39    C     0.60900   0.97950   0.75460   0.01267  Uiso   1.00
C40    C     0.47950   0.94120   0.71540   0.01267  Uiso   1.00
C41    C     0.67190   0.23120   0.14500   0.01267  Uiso   1.00
C42    C     0.64150   0.17850   0.14410   0.01267  Uiso   1.00
C43    C     0.28930   0.07290   0.04000   0.01267  Uiso   1.00
C44    C     0.25170   0.10000   0.01840   0.01267  Uiso   1.00
C45    C     0.38470   0.04060   0.89530   0.01267  Uiso   1.00
C46    C     0.34750   0.09230   0.85530   0.01267  Uiso   1.00
C47    C     0.36200   0.05570   0.82040   0.01267  Uiso   1.00
C48    C     0.35450   0.04860   0.76450   0.01267  Uiso   1.00
C49    C     0.31970   0.13580   0.85310   0.01267  Uiso   1.00
C50    C     0.47250   0.15410   0.00720   0.01267  Uiso   1.00
C51    C     0.49000   0.23600   0.03650   0.01267  Uiso   1.00
C52    C     0.43730   0.21970   0.02120   0.01267  Uiso   1.00
C53    C     0.39100   0.24540   0.02050   0.01267  Uiso   1.00
C54    C     0.52050   0.28460   0.05880   0.01267  Uiso   1.00
C55    C     0.32810   0.85500   0.76880   0.01267  Uiso   1.00
C56    C     0.35850   0.85590   0.82150   0.01267  Uiso   1.00
C57    C     0.07290   0.04000   0.28930   0.01267  Uiso   1.00
C58    C     0.10000   0.01840   0.25170   0.01267  Uiso   1.00
C59    C     0.04060   0.89530   0.38470   0.01267  Uiso   1.00
C60    C     0.09230   0.85530   0.34750   0.01267  Uiso   1.00
C61    C     0.05570   0.82040   0.36200   0.01267  Uiso   1.00
C62    C     0.04860   0.76450   0.35450   0.01267  Uiso   1.00
C63    C     0.13580   0.85310   0.31970   0.01267  Uiso   1.00
C64    C     0.15410   0.00720   0.47250   0.01267  Uiso   1.00
C65    C     0.23600   0.03650   0.49000   0.01267  Uiso   1.00
C66    C     0.21970   0.02120   0.43730   0.01267  Uiso   1.00
C67    C     0.24540   0.02050   0.39100   0.01267  Uiso   1.00
C68    C     0.28460   0.05880   0.52050   0.01267  Uiso   1.00
C69    C     0.85500   0.76880   0.32810   0.01267  Uiso   1.00
C70    C     0.85590   0.82150   0.35850   0.01267  Uiso   1.00
C71    C     0.04000   0.28930   0.07290   0.01267  Uiso   1.00
C72    C     0.01840   0.25170   0.10000   0.01267  Uiso   1.00
C73    C     0.89530   0.38470   0.04060   0.01267  Uiso   1.00
C74    C     0.85530   0.34750   0.09230   0.01267  Uiso   1.00
C75    C     0.82040   0.36200   0.05570   0.01267  Uiso   1.00
C76    C     0.76450   0.35450   0.04860   0.01267  Uiso   1.00
C77    C     0.85310   0.31970   0.13580   0.01267  Uiso   1.00
C78    C     0.00720   0.47250   0.15410   0.01267  Uiso   1.00
C79    C     0.03650   0.49000   0.23600   0.01267  Uiso   1.00
C80    C     0.02120   0.43730   0.21970   0.01267  Uiso   1.00
C81    C     0.02050   0.39100   0.24540   0.01267  Uiso   1.00
C82    C     0.05880   0.52050   0.28460   0.01267  Uiso   1.00
C83    C     0.76880   0.32810   0.85500   0.01267  Uiso   1.00
C84    C     0.82150   0.35850   0.85590   0.01267  Uiso   1.00
C85    C     0.07290   0.28930   0.04000   0.01267  Uiso   1.00
C86    C     0.10000   0.25170   0.01840   0.01267  Uiso   1.00
C87    C     0.04060   0.38470   0.89530   0.01267  Uiso   1.00
C88    C     0.09230   0.34750   0.85530   0.01267  Uiso   1.00
C89    C     0.05570   0.36200   0.82040   0.01267  Uiso   1.00
C90    C     0.04860   0.35450   0.76450   0.01267  Uiso   1.00
C91    C     0.13580   0.31970   0.85310   0.01267  Uiso   1.00
C92    C     0.15410   0.47250   0.00720   0.01267  Uiso   1.00
C93    C     0.23600   0.49000   0.03650   0.01267  Uiso   1.00
C94    C     0.21970   0.43730   0.02120   0.01267  Uiso   1.00
C95    C     0.24540   0.39100   0.02050   0.01267  Uiso   1.00
C96    C     0.28460   0.52050   0.05880   0.01267  Uiso   1.00
C97    C     0.85500   0.32810   0.76880   0.01267  Uiso   1.00
C98    C     0.85590   0.35850   0.82150   0.01267  Uiso   1.00
C99    C     0.04000   0.07290   0.28930   0.01267  Uiso   1.00
C100   C     0.01840   0.10000   0.25170   0.01267  Uiso   1.00
C101   C     0.89530   0.04060   0.38470   0.01267  Uiso   1.00
C102   C     0.85530   0.09230   0.34750   0.01267  Uiso   1.00
C103   C     0.82040   0.05570   0.36200   0.01267  Uiso   1.00
C104   C     0.76450   0.04860   0.35450   0.01267  Uiso   1.00
C105   C     0.85310   0.13580   0.31970   0.01267  Uiso   1.00
C106   C     0.00720   0.15410   0.47250   0.01267  Uiso   1.00
C107   C     0.03650   0.23600   0.49000   0.01267  Uiso   1.00
C108   C     0.02120   0.21970   0.43730   0.01267  Uiso   1.00
C109   C     0.02050   0.24540   0.39100   0.01267  Uiso   1.00
C110   C     0.05880   0.28460   0.52050   0.01267  Uiso   1.00
C111   C     0.76880   0.85500   0.32810   0.01267  Uiso   1.00
C112   C     0.82150   0.85590   0.35850   0.01267  Uiso   1.00
C113   C     0.28930   0.04000   0.07290   0.01267  Uiso   1.00
C114   C     0.25170   0.01840   0.10000   0.01267  Uiso   1.00
C115   C     0.38470   0.89530   0.04060   0.01267  Uiso   1.00
C116   C     0.34750   0.85530   0.09230   0.01267  Uiso   1.00
C117   C     0.36200   0.82040   0.05570   0.01267  Uiso   1.00
C118   C     0.35450   0.76450   0.04860   0.01267  Uiso   1.00
C119   C     0.31970   0.85310   0.13580   0.01267  Uiso   1.00
C120   C     0.47250   0.00720   0.15410   0.01267  Uiso   1.00
C121   C     0.49000   0.03650   0.23600   0.01267  Uiso   1.00
C122   C     0.43730   0.02120   0.21970   0.01267  Uiso   1.00
C123   C     0.39100   0.02050   0.24540   0.01267  Uiso   1.00
C124   C     0.52050   0.05880   0.28460   0.01267  Uiso   1.00
C125   C     0.32810   0.76880   0.85500   0.01267  Uiso   1.00
C126   C     0.35850   0.82150   0.85590   0.01267  Uiso   1.00
C127   C     0.71070   0.92710   0.96000   0.01267  Uiso   1.00
C128   C     0.74830   0.90000   0.98160   0.01267  Uiso   1.00
C129   C     0.61530   0.95940   0.10470   0.01267  Uiso   1.00
C130   C     0.65250   0.90770   0.14470   0.01267  Uiso   1.00
C131   C     0.63800   0.94430   0.17960   0.01267  Uiso   1.00
C132   C     0.64550   0.95140   0.23550   0.01267  Uiso   1.00
C133   C     0.68030   0.86420   0.14690   0.01267  Uiso   1.00
C134   C     0.52750   0.84590   0.99280   0.01267  Uiso   1.00
C135   C     0.51000   0.76400   0.96350   0.01267  Uiso   1.00
C136   C     0.56270   0.78030   0.97880   0.01267  Uiso   1.00
C137   C     0.60900   0.75460   0.97950   0.01267  Uiso   1.00
C138   C     0.47950   0.71540   0.94120   0.01267  Uiso   1.00
C139   C     0.67190   0.14500   0.23120   0.01267  Uiso   1.00
C140   C     0.64150   0.14410   0.17850   0.01267  Uiso   1.00
C141   C     0.92710   0.96000   0.71070   0.01267  Uiso   1.00
C142   C     0.90000   0.98160   0.74830   0.01267  Uiso   1.00
C143   C     0.95940   0.10470   0.61530   0.01267  Uiso   1.00
C144   C     0.90770   0.14470   0.65250   0.01267  Uiso   1.00
C145   C     0.94430   0.17960   0.63800   0.01267  Uiso   1.00
C146   C     0.95140   0.23550   0.64550   0.01267  Uiso   1.00
C147   C     0.86420   0.14690   0.68030   0.01267  Uiso   1.00
C148   C     0.84590   0.99280   0.52750   0.01267  Uiso   1.00
C149   C     0.76400   0.96350   0.51000   0.01267  Uiso   1.00
C150   C     0.78030   0.97880   0.56270   0.01267  Uiso   1.00
C151   C     0.75460   0.97950   0.60900   0.01267  Uiso   1.00
C152   C     0.71540   0.94120   0.47950   0.01267  Uiso   1.00
C153   C     0.14500   0.23120   0.67190   0.01267  Uiso   1.00
C154   C     0.14410   0.17850   0.64150   0.01267  Uiso   1.00
C155   C     0.96000   0.71070   0.92710   0.01267  Uiso   1.00
C156   C     0.98160   0.74830   0.90000   0.01267  Uiso   1.00
C157   C     0.10470   0.61530   0.95940   0.01267  Uiso   1.00
C158   C     0.14470   0.65250   0.90770   0.01267  Uiso   1.00
C159   C     0.17960   0.63800   0.94430   0.01267  Uiso   1.00
C160   C     0.23550   0.64550   0.95140   0.01267  Uiso   1.00
C161   C     0.14690   0.68030   0.86420   0.01267  Uiso   1.00
C162   C     0.99280   0.52750   0.84590   0.01267  Uiso   1.00
C163   C     0.96350   0.51000   0.76400   0.01267  Uiso   1.00
C164   C     0.97880   0.56270   0.78030   0.01267  Uiso   1.00
C165   C     0.97950   0.60900   0.75460   0.01267  Uiso   1.00
C166   C     0.94120   0.47950   0.71540   0.01267  Uiso   1.00
C167   C     0.23120   0.67190   0.14500   0.01267  Uiso   1.00
C168   C     0.17850   0.64150   0.14410   0.01267  Uiso   1.00
C169   C     0.95140   0.63860   0.95140   0.01267  Uiso   1.00
C170   C     0.11390   0.58630   0.11390   0.01267  Uiso   1.00
C171   C     0.95140   0.95140   0.63860   0.01267  Uiso   1.00
C172   C     0.11390   0.11390   0.58630   0.01267  Uiso   1.00
C173   C     0.63860   0.95140   0.95140   0.01267  Uiso   1.00
C174   C     0.58630   0.11390   0.11390   0.01267  Uiso   1.00
C175   C     0.36140   0.04860   0.04860   0.01267  Uiso   1.00
C176   C     0.41370   0.88610   0.88610   0.01267  Uiso   1.00
C177   C     0.04860   0.04860   0.36140   0.01267  Uiso   1.00
C178   C     0.88610   0.88610   0.41370   0.01267  Uiso   1.00
C179   C     0.04860   0.36140   0.04860   0.01267  Uiso   1.00
C180   C     0.88610   0.41370   0.88610   0.01267  Uiso   1.00
N1     N     0.92060   0.66550   0.97600   0.01267  Uiso   1.00
N2     N     0.91890   0.63590   0.09700   0.01267  Uiso   1.00
N3     N     0.97630   0.61490   0.15420   0.01267  Uiso   1.00
N4     N     0.80670   0.48890   0.97370   0.01267  Uiso   1.00
N5     N     0.83180   0.57370   0.99670   0.01267  Uiso   1.00
N6     N     0.10340   0.60710   0.15790   0.01267  Uiso   1.00
N7     N     0.97600   0.92060   0.66550   0.01267  Uiso   1.00
N8     N     0.09700   0.91890   0.63590   0.01267  Uiso   1.00
N9     N     0.15420   0.97630   0.61490   0.01267  Uiso   1.00
N10    N     0.97370   0.80670   0.48890   0.01267  Uiso   1.00
N11    N     0.99670   0.83180   0.57370   0.01267  Uiso   1.00
N12    N     0.15790   0.10340   0.60710   0.01267  Uiso   1.00
N13    N     0.66550   0.97600   0.92060   0.01267  Uiso   1.00
N14    N     0.63590   0.09700   0.91890   0.01267  Uiso   1.00
N15    N     0.61490   0.15420   0.97630   0.01267  Uiso   1.00
N16    N     0.48890   0.97370   0.80670   0.01267  Uiso   1.00
N17    N     0.57370   0.99670   0.83180   0.01267  Uiso   1.00
N18    N     0.60710   0.15790   0.10340   0.01267  Uiso   1.00
N19    N     0.33450   0.07940   0.02400   0.01267  Uiso   1.00
N20    N     0.36410   0.08110   0.90300   0.01267  Uiso   1.00
N21    N     0.38510   0.02370   0.84580   0.01267  Uiso   1.00
N22    N     0.51110   0.19330   0.02630   0.01267  Uiso   1.00
N23    N     0.42630   0.16820   0.00330   0.01267  Uiso   1.00
N24    N     0.39290   0.89660   0.84210   0.01267  Uiso   1.00
N25    N     0.07940   0.02400   0.33450   0.01267  Uiso   1.00
N26    N     0.08110   0.90300   0.36410   0.01267  Uiso   1.00
N27    N     0.02370   0.84580   0.38510   0.01267  Uiso   1.00
N28    N     0.19330   0.02630   0.51110   0.01267  Uiso   1.00
N29    N     0.16820   0.00330   0.42630   0.01267  Uiso   1.00
N30    N     0.89660   0.84210   0.39290   0.01267  Uiso   1.00
N31    N     0.02400   0.33450   0.07940   0.01267  Uiso   1.00
N32    N     0.90300   0.36410   0.08110   0.01267  Uiso   1.00
N33    N     0.84580   0.38510   0.02370   0.01267  Uiso   1.00
N34    N     0.02630   0.51110   0.19330   0.01267  Uiso   1.00
N35    N     0.00330   0.42630   0.16820   0.01267  Uiso   1.00
N36    N     0.84210   0.39290   0.89660   0.01267  Uiso   1.00
N37    N     0.07940   0.33450   0.02400   0.01267  Uiso   1.00
N38    N     0.08110   0.36410   0.90300   0.01267  Uiso   1.00
N39    N     0.02370   0.38510   0.84580   0.01267  Uiso   1.00
N40    N     0.19330   0.51110   0.02630   0.01267  Uiso   1.00
N41    N     0.16820   0.42630   0.00330   0.01267  Uiso   1.00
N42    N     0.89660   0.39290   0.84210   0.01267  Uiso   1.00
N43    N     0.02400   0.07940   0.33450   0.01267  Uiso   1.00
N44    N     0.90300   0.08110   0.36410   0.01267  Uiso   1.00
N45    N     0.84580   0.02370   0.38510   0.01267  Uiso   1.00
N46    N     0.02630   0.19330   0.51110   0.01267  Uiso   1.00
N47    N     0.00330   0.16820   0.42630   0.01267  Uiso   1.00
N48    N     0.84210   0.89660   0.39290   0.01267  Uiso   1.00
N49    N     0.33450   0.02400   0.07940   0.01267  Uiso   1.00
N50    N     0.36410   0.90300   0.08110   0.01267  Uiso   1.00
N51    N     0.38510   0.84580   0.02370   0.01267  Uiso   1.00
N52    N     0.51110   0.02630   0.19330   0.01267  Uiso   1.00
N53    N     0.42630   0.00330   0.16820   0.01267  Uiso   1.00
N54    N     0.39290   0.84210   0.89660   0.01267  Uiso   1.00
N55    N     0.66550   0.92060   0.97600   0.01267  Uiso   1.00
N56    N     0.63590   0.91890   0.09700   0.01267  Uiso   1.00
N57    N     0.61490   0.97630   0.15420   0.01267  Uiso   1.00
N58    N     0.48890   0.80670   0.97370   0.01267  Uiso   1.00
N59    N     0.57370   0.83180   0.99670   0.01267  Uiso   1.00
N60    N     0.60710   0.10340   0.15790   0.01267  Uiso   1.00
N61    N     0.92060   0.97600   0.66550   0.01267  Uiso   1.00
N62    N     0.91890   0.09700   0.63590   0.01267  Uiso   1.00
N63    N     0.97630   0.15420   0.61490   0.01267  Uiso   1.00
N64    N     0.80670   0.97370   0.48890   0.01267  Uiso   1.00
N65    N     0.83180   0.99670   0.57370   0.01267  Uiso   1.00
N66    N     0.10340   0.15790   0.60710   0.01267  Uiso   1.00
N67    N     0.97600   0.66550   0.92060   0.01267  Uiso   1.00
N68    N     0.09700   0.63590   0.91890   0.01267  Uiso   1.00
N69    N     0.15420   0.61490   0.97630   0.01267  Uiso   1.00
N70    N     0.97370   0.48890   0.80670   0.01267  Uiso   1.00
N71    N     0.99670   0.57370   0.83180   0.01267  Uiso   1.00
N72    N     0.15790   0.60710   0.10340   0.01267  Uiso   1.00
O1     O     0.87070   0.74010   0.01310   0.01267  Uiso   1.00
O2     O     0.90480   0.79340   0.96680   0.01267  Uiso   1.00
O3     O     0.99390   0.63530   0.25690   0.01267  Uiso   1.00
O4     O     0.91950   0.65840   0.26230   0.01267  Uiso   1.00
O5     O     0.84150   0.68800   0.10460   0.01267  Uiso   1.00
O6     O     0.85150   0.69480   0.18770   0.01267  Uiso   1.00
O7     O     0.77800   0.65010   0.99660   0.01267  Uiso   1.00
O8     O     0.70440   0.59400   0.95920   0.01267  Uiso   1.00
O9     O     0.71220   0.43090   0.93270   0.01267  Uiso   1.00
O10    O     0.67720   0.50210   0.93250   0.01267  Uiso   1.00
O11    O     0.11040   0.66370   0.25330   0.01267  Uiso   1.00
O12    O     0.18730   0.70730   0.24830   0.01267  Uiso   1.00
O13    O     0.14880   0.66290   0.36990   0.01267  Uiso   1.00
O14    O     0.77700   0.60800   0.20500   0.01267  Uiso   1.00
O15    O     0.01310   0.87070   0.74010   0.01267  Uiso   1.00
O16    O     0.96680   0.90480   0.79340   0.01267  Uiso   1.00
O17    O     0.25690   0.99390   0.63530   0.01267  Uiso   1.00
O18    O     0.26230   0.91950   0.65840   0.01267  Uiso   1.00
O19    O     0.10460   0.84150   0.68800   0.01267  Uiso   1.00
O20    O     0.18770   0.85150   0.69480   0.01267  Uiso   1.00
O21    O     0.99660   0.77800   0.65010   0.01267  Uiso   1.00
O22    O     0.95920   0.70440   0.59400   0.01267  Uiso   1.00
O23    O     0.93270   0.71220   0.43090   0.01267  Uiso   1.00
O24    O     0.93250   0.67720   0.50210   0.01267  Uiso   1.00
O25    O     0.25330   0.11040   0.66370   0.01267  Uiso   1.00
O26    O     0.24830   0.18730   0.70730   0.01267  Uiso   1.00
O27    O     0.36990   0.14880   0.66290   0.01267  Uiso   1.00
O28    O     0.20500   0.77700   0.60800   0.01267  Uiso   1.00
O29    O     0.74010   0.01310   0.87070   0.01267  Uiso   1.00
O30    O     0.79340   0.96680   0.90480   0.01267  Uiso   1.00
O31    O     0.63530   0.25690   0.99390   0.01267  Uiso   1.00
O32    O     0.65840   0.26230   0.91950   0.01267  Uiso   1.00
O33    O     0.68800   0.10460   0.84150   0.01267  Uiso   1.00
O34    O     0.69480   0.18770   0.85150   0.01267  Uiso   1.00
O35    O     0.65010   0.99660   0.77800   0.01267  Uiso   1.00
O36    O     0.59400   0.95920   0.70440   0.01267  Uiso   1.00
O37    O     0.43090   0.93270   0.71220   0.01267  Uiso   1.00
O38    O     0.50210   0.93250   0.67720   0.01267  Uiso   1.00
O39    O     0.66370   0.25330   0.11040   0.01267  Uiso   1.00
O40    O     0.70730   0.24830   0.18730   0.01267  Uiso   1.00
O41    O     0.66290   0.36990   0.14880   0.01267  Uiso   1.00
O42    O     0.60800   0.20500   0.77700   0.01267  Uiso   1.00
O43    O     0.25990   0.12930   0.98690   0.01267  Uiso   1.00
O44    O     0.20660   0.09520   0.03320   0.01267  Uiso   1.00
O45    O     0.36470   0.00610   0.74310   0.01267  Uiso   1.00
O46    O     0.34160   0.08050   0.73770   0.01267  Uiso   1.00
O47    O     0.31200   0.15850   0.89540   0.01267  Uiso   1.00
O48    O     0.30520   0.14850   0.81230   0.01267  Uiso   1.00
O49    O     0.34990   0.22200   0.00340   0.01267  Uiso   1.00
O50    O     0.40600   0.29560   0.04080   0.01267  Uiso   1.00
O51    O     0.56910   0.28780   0.06730   0.01267  Uiso   1.00
O52    O     0.49790   0.32280   0.06750   0.01267  Uiso   1.00
O53    O     0.33630   0.88960   0.74670   0.01267  Uiso   1.00
O54    O     0.29270   0.81270   0.75170   0.01267  Uiso   1.00
O55    O     0.33710   0.85120   0.63010   0.01267  Uiso   1.00
O56    O     0.39200   0.22300   0.79500   0.01267  Uiso   1.00
O57    O     0.12930   0.98690   0.25990   0.01267  Uiso   1.00
O58    O     0.09520   0.03320   0.20660   0.01267  Uiso   1.00
O59    O     0.00610   0.74310   0.36470   0.01267  Uiso   1.00
O60    O     0.08050   0.73770   0.34160   0.01267  Uiso   1.00
O61    O     0.15850   0.89540   0.31200   0.01267  Uiso   1.00
O62    O     0.14850   0.81230   0.30520   0.01267  Uiso   1.00
O63    O     0.22200   0.00340   0.34990   0.01267  Uiso   1.00
O64    O     0.29560   0.04080   0.40600   0.01267  Uiso   1.00
O65    O     0.28780   0.06730   0.56910   0.01267  Uiso   1.00
O66    O     0.32280   0.06750   0.49790   0.01267  Uiso   1.00
O67    O     0.88960   0.74670   0.33630   0.01267  Uiso   1.00
O68    O     0.81270   0.75170   0.29270   0.01267  Uiso   1.00
O69    O     0.85120   0.63010   0.33710   0.01267  Uiso   1.00
O70    O     0.22300   0.79500   0.39200   0.01267  Uiso   1.00
O71    O     0.98690   0.25990   0.12930   0.01267  Uiso   1.00
O72    O     0.03320   0.20660   0.09520   0.01267  Uiso   1.00
O73    O     0.74310   0.36470   0.00610   0.01267  Uiso   1.00
O74    O     0.73770   0.34160   0.08050   0.01267  Uiso   1.00
O75    O     0.89540   0.31200   0.15850   0.01267  Uiso   1.00
O76    O     0.81230   0.30520   0.14850   0.01267  Uiso   1.00
O77    O     0.00340   0.34990   0.22200   0.01267  Uiso   1.00
O78    O     0.04080   0.40600   0.29560   0.01267  Uiso   1.00
O79    O     0.06730   0.56910   0.28780   0.01267  Uiso   1.00
O80    O     0.06750   0.49790   0.32280   0.01267  Uiso   1.00
O81    O     0.74670   0.33630   0.88960   0.01267  Uiso   1.00
O82    O     0.75170   0.29270   0.81270   0.01267  Uiso   1.00
O83    O     0.63010   0.33710   0.85120   0.01267  Uiso   1.00
O84    O     0.79500   0.39200   0.22300   0.01267  Uiso   1.00
O85    O     0.12930   0.25990   0.98690   0.01267  Uiso   1.00
O86    O     0.09520   0.20660   0.03320   0.01267  Uiso   1.00
O87    O     0.00610   0.36470   0.74310   0.01267  Uiso   1.00
O88    O     0.08050   0.34160   0.73770   0.01267  Uiso   1.00
O89    O     0.15850   0.31200   0.89540   0.01267  Uiso   1.00
O90    O     0.14850   0.30520   0.81230   0.01267  Uiso   1.00
O91    O     0.22200   0.34990   0.00340   0.01267  Uiso   1.00
O92    O     0.29560   0.40600   0.04080   0.01267  Uiso   1.00
O93    O     0.28780   0.56910   0.06730   0.01267  Uiso   1.00
O94    O     0.32280   0.49790   0.06750   0.01267  Uiso   1.00
O95    O     0.88960   0.33630   0.74670   0.01267  Uiso   1.00
O96    O     0.81270   0.29270   0.75170   0.01267  Uiso   1.00
O97    O     0.85120   0.33710   0.63010   0.01267  Uiso   1.00
O98    O     0.22300   0.39200   0.79500   0.01267  Uiso   1.00
O99    O     0.98690   0.12930   0.25990   0.01267  Uiso   1.00
O100   O     0.03320   0.09520   0.20660   0.01267  Uiso   1.00
O101   O     0.74310   0.00610   0.36470   0.01267  Uiso   1.00
O102   O     0.73770   0.08050   0.34160   0.01267  Uiso   1.00
O103   O     0.89540   0.15850   0.31200   0.01267  Uiso   1.00
O104   O     0.81230   0.14850   0.30520   0.01267  Uiso   1.00
O105   O     0.00340   0.22200   0.34990   0.01267  Uiso   1.00
O106   O     0.04080   0.29560   0.40600   0.01267  Uiso   1.00
O107   O     0.06730   0.28780   0.56910   0.01267  Uiso   1.00
O108   O     0.06750   0.32280   0.49790   0.01267  Uiso   1.00
O109   O     0.74670   0.88960   0.33630   0.01267  Uiso   1.00
O110   O     0.75170   0.81270   0.29270   0.01267  Uiso   1.00
O111   O     0.63010   0.85120   0.33710   0.01267  Uiso   1.00
O112   O     0.79500   0.22300   0.39200   0.01267  Uiso   1.00
O113   O     0.25990   0.98690   0.12930   0.01267  Uiso   1.00
O114   O     0.20660   0.03320   0.09520   0.01267  Uiso   1.00
O115   O     0.36470   0.74310   0.00610   0.01267  Uiso   1.00
O116   O     0.34160   0.73770   0.08050   0.01267  Uiso   1.00
O117   O     0.31200   0.89540   0.15850   0.01267  Uiso   1.00
O118   O     0.30520   0.81230   0.14850   0.01267  Uiso   1.00
O119   O     0.34990   0.00340   0.22200   0.01267  Uiso   1.00
O120   O     0.40600   0.04080   0.29560   0.01267  Uiso   1.00
O121   O     0.56910   0.06730   0.28780   0.01267  Uiso   1.00
O122   O     0.49790   0.06750   0.32280   0.01267  Uiso   1.00
O123   O     0.33630   0.74670   0.88960   0.01267  Uiso   1.00
O124   O     0.29270   0.75170   0.81270   0.01267  Uiso   1.00
O125   O     0.33710   0.63010   0.85120   0.01267  Uiso   1.00
O126   O     0.39200   0.79500   0.22300   0.01267  Uiso   1.00
O127   O     0.74010   0.87070   0.01310   0.01267  Uiso   1.00
O128   O     0.79340   0.90480   0.96680   0.01267  Uiso   1.00
O129   O     0.63530   0.99390   0.25690   0.01267  Uiso   1.00
O130   O     0.65840   0.91950   0.26230   0.01267  Uiso   1.00
O131   O     0.68800   0.84150   0.10460   0.01267  Uiso   1.00
O132   O     0.69480   0.85150   0.18770   0.01267  Uiso   1.00
O133   O     0.65010   0.77800   0.99660   0.01267  Uiso   1.00
O134   O     0.59400   0.70440   0.95920   0.01267  Uiso   1.00
O135   O     0.43090   0.71220   0.93270   0.01267  Uiso   1.00
O136   O     0.50210   0.67720   0.93250   0.01267  Uiso   1.00
O137   O     0.66370   0.11040   0.25330   0.01267  Uiso   1.00
O138   O     0.70730   0.18730   0.24830   0.01267  Uiso   1.00
O139   O     0.66290   0.14880   0.36990   0.01267  Uiso   1.00
O140   O     0.60800   0.77700   0.20500   0.01267  Uiso   1.00
O141   O     0.87070   0.01310   0.74010   0.01267  Uiso   1.00
O142   O     0.90480   0.96680   0.79340   0.01267  Uiso   1.00
O143   O     0.99390   0.25690   0.63530   0.01267  Uiso   1.00
O144   O     0.91950   0.26230   0.65840   0.01267  Uiso   1.00
O145   O     0.84150   0.10460   0.68800   0.01267  Uiso   1.00
O146   O     0.85150   0.18770   0.69480   0.01267  Uiso   1.00
O147   O     0.77800   0.99660   0.65010   0.01267  Uiso   1.00
O148   O     0.70440   0.95920   0.59400   0.01267  Uiso   1.00
O149   O     0.71220   0.93270   0.43090   0.01267  Uiso   1.00
O150   O     0.67720   0.93250   0.50210   0.01267  Uiso   1.00
O151   O     0.11040   0.25330   0.66370   0.01267  Uiso   1.00
O152   O     0.18730   0.24830   0.70730   0.01267  Uiso   1.00
O153   O     0.14880   0.36990   0.66290   0.01267  Uiso   1.00
O154   O     0.77700   0.20500   0.60800   0.01267  Uiso   1.00
O155   O     0.01310   0.74010   0.87070   0.01267  Uiso   1.00
O156   O     0.96680   0.79340   0.90480   0.01267  Uiso   1.00
O157   O     0.25690   0.63530   0.99390   0.01267  Uiso   1.00
O158   O     0.26230   0.65840   0.91950   0.01267  Uiso   1.00
O159   O     0.10460   0.68800   0.84150   0.01267  Uiso   1.00
O160   O     0.18770   0.69480   0.85150   0.01267  Uiso   1.00
O161   O     0.99660   0.65010   0.77800   0.01267  Uiso   1.00
O162   O     0.95920   0.59400   0.70440   0.01267  Uiso   1.00
O163   O     0.93270   0.43090   0.71220   0.01267  Uiso   1.00
O164   O     0.93250   0.50210   0.67720   0.01267  Uiso   1.00
O165   O     0.25330   0.66370   0.11040   0.01267  Uiso   1.00
O166   O     0.24830   0.70730   0.18730   0.01267  Uiso   1.00
O167   O     0.36990   0.66290   0.14880   0.01267  Uiso   1.00
O168   O     0.20500   0.60800   0.77700   0.01267  Uiso   1.00
O169   O     0.00000   0.62215   0.37785   0.01267  Uiso   1.00
O170   O     0.37785  -0.00000   0.62215   0.01267  Uiso   1.00
O171   O     0.62215   0.37785  -0.00000   0.01267  Uiso   1.00
O172   O     1.00000   0.37785   0.62215   0.01267  Uiso   1.00
O173   O     0.62215  -0.00000   0.37785   0.01267  Uiso   1.00
O174   O     0.37785   0.62215   0.00000   0.01267  Uiso   1.00
H37    H     0.17280   0.80650   0.76150   0.01267  Uiso   1.00
H38    H     0.05980   0.80160   0.82420   0.01267  Uiso   1.00
H39    H     0.12680   0.74930   0.70390   0.01267  Uiso   1.00
H40    H     0.07580   0.69840   0.76530   0.01267  Uiso   1.00
H41    H     0.17280   0.76150   0.80650   0.01267  Uiso   1.00
H42    H     0.05980   0.82420   0.80160   0.01267  Uiso   1.00
H43    H     0.12680   0.70390   0.74930   0.01267  Uiso   1.00
H44    H     0.07580   0.76530   0.69840   0.01267  Uiso   1.00
C181   C     0.16040   0.77625   0.77625   0.01267  Uiso   1.00
C182   C     0.07950   0.79600   0.79600   0.01267  Uiso   1.00
C183   C     0.05080   0.76010   0.76010   0.01267  Uiso   1.00
C184   C     0.12760   0.73685   0.73685   0.01267  Uiso   1.00
N73    N     0.07610   0.72120   0.74280   0.01267  Uiso   1.00
N74    N     0.12560   0.79060   0.81680   0.01267  Uiso   1.00
N75    N     0.07610   0.74280   0.72120   0.01267  Uiso   1.00
N76    N     0.12560   0.81680   0.79060   0.01267  Uiso   1.00
H45    H     0.76150   0.17280   0.80650   0.01267  Uiso   1.00
H46    H     0.82420   0.05980   0.80160   0.01267  Uiso   1.00
H47    H     0.70390   0.12680   0.74930   0.01267  Uiso   1.00
H48    H     0.76530   0.07580   0.69840   0.01267  Uiso   1.00
H49    H     0.80650   0.17280   0.76150   0.01267  Uiso   1.00
H50    H     0.80160   0.05980   0.82420   0.01267  Uiso   1.00
H51    H     0.74930   0.12680   0.70390   0.01267  Uiso   1.00
H52    H     0.69840   0.07580   0.76530   0.01267  Uiso   1.00
C185   C     0.77625   0.16040   0.77625   0.01267  Uiso   1.00
C186   C     0.79600   0.07950   0.79600   0.01267  Uiso   1.00
C187   C     0.76010   0.05080   0.76010   0.01267  Uiso   1.00
C188   C     0.73685   0.12760   0.73685   0.01267  Uiso   1.00
N77    N     0.74280   0.07610   0.72120   0.01267  Uiso   1.00
N78    N     0.81680   0.12560   0.79060   0.01267  Uiso   1.00
N79    N     0.72120   0.07610   0.74280   0.01267  Uiso   1.00
N80    N     0.79060   0.12560   0.81680   0.01267  Uiso   1.00
H53    H     0.80650   0.76150   0.17280   0.01267  Uiso   1.00
H54    H     0.80160   0.82420   0.05980   0.01267  Uiso   1.00
H55    H     0.74930   0.70390   0.12680   0.01267  Uiso   1.00
H56    H     0.69840   0.76530   0.07580   0.01267  Uiso   1.00
H57    H     0.76150   0.80650   0.17280   0.01267  Uiso   1.00
H58    H     0.82420   0.80160   0.05980   0.01267  Uiso   1.00
H59    H     0.70390   0.74930   0.12680   0.01267  Uiso   1.00
H60    H     0.76530   0.69840   0.07580   0.01267  Uiso   1.00
C189   C     0.77625   0.77625   0.16040   0.01267  Uiso   1.00
C190   C     0.79600   0.79600   0.07950   0.01267  Uiso   1.00
C191   C     0.76010   0.76010   0.05080   0.01267  Uiso   1.00
C192   C     0.73685   0.73685   0.12760   0.01267  Uiso   1.00
N81    N     0.72120   0.74280   0.07610   0.01267  Uiso   1.00
N82    N     0.79060   0.81680   0.12560   0.01267  Uiso   1.00
N83    N     0.74280   0.72120   0.07610   0.01267  Uiso   1.00
N84    N     0.81680   0.79060   0.12560   0.01267  Uiso   1.00
H61    H     0.19350   0.82720   0.23850   0.01267  Uiso   1.00
H62    H     0.19840   0.94020   0.17580   0.01267  Uiso   1.00
H63    H     0.25070   0.87320   0.29610   0.01267  Uiso   1.00
H64    H     0.30160   0.92420   0.23470   0.01267  Uiso   1.00
H65    H     0.23850   0.82720   0.19350   0.01267  Uiso   1.00
H66    H     0.17580   0.94020   0.19840   0.01267  Uiso   1.00
H67    H     0.29610   0.87320   0.25070   0.01267  Uiso   1.00
H68    H     0.23470   0.92420   0.30160   0.01267  Uiso   1.00
C193   C     0.22375   0.83960   0.22375   0.01267  Uiso   1.00
C194   C     0.20400   0.92050   0.20400   0.01267  Uiso   1.00
C195   C     0.23990   0.94920   0.23990   0.01267  Uiso   1.00
C196   C     0.26315   0.87240   0.26315   0.01267  Uiso   1.00
N85    N     0.27880   0.92390   0.25720   0.01267  Uiso   1.00
N86    N     0.20940   0.87440   0.18320   0.01267  Uiso   1.00
N87    N     0.25720   0.92390   0.27880   0.01267  Uiso   1.00
N88    N     0.18320   0.87440   0.20940   0.01267  Uiso   1.00
H69    H     0.82720   0.23850   0.19350   0.01267  Uiso   1.00
H70    H     0.94020   0.17580   0.19840   0.01267  Uiso   1.00
H71    H     0.87320   0.29610   0.25070   0.01267  Uiso   1.00
H72    H     0.92420   0.23470   0.30160   0.01267  Uiso   1.00
H73    H     0.82720   0.19350   0.23850   0.01267  Uiso   1.00
H74    H     0.94020   0.19840   0.17580   0.01267  Uiso   1.00
H75    H     0.87320   0.25070   0.29610   0.01267  Uiso   1.00
H76    H     0.92420   0.30160   0.23470   0.01267  Uiso   1.00
C197   C     0.83960   0.22375   0.22375   0.01267  Uiso   1.00
C198   C     0.92050   0.20400   0.20400   0.01267  Uiso   1.00
C199   C     0.94920   0.23990   0.23990   0.01267  Uiso   1.00
C200   C     0.87240   0.26315   0.26315   0.01267  Uiso   1.00
N89    N     0.92390   0.25720   0.27880   0.01267  Uiso   1.00
N90    N     0.87440   0.18320   0.20940   0.01267  Uiso   1.00
N91    N     0.92390   0.27880   0.25720   0.01267  Uiso   1.00
N92    N     0.87440   0.20940   0.18320   0.01267  Uiso   1.00
H77    H     0.23850   0.19350   0.82720   0.01267  Uiso   1.00
H78    H     0.17580   0.19840   0.94020   0.01267  Uiso   1.00
H79    H     0.29610   0.25070   0.87320   0.01267  Uiso   1.00
H80    H     0.23470   0.30160   0.92420   0.01267  Uiso   1.00
H81    H     0.19350   0.23850   0.82720   0.01267  Uiso   1.00
H82    H     0.19840   0.17580   0.94020   0.01267  Uiso   1.00
H83    H     0.25070   0.29610   0.87320   0.01267  Uiso   1.00
H84    H     0.30160   0.23470   0.92420   0.01267  Uiso   1.00
C201   C     0.22375   0.22375   0.83960   0.01267  Uiso   1.00
C202   C     0.20400   0.20400   0.92050   0.01267  Uiso   1.00
C203   C     0.23990   0.23990   0.94920   0.01267  Uiso   1.00
C204   C     0.26315   0.26315   0.87240   0.01267  Uiso   1.00
N93    N     0.25720   0.27880   0.92390   0.01267  Uiso   1.00
N94    N     0.18320   0.20940   0.87440   0.01267  Uiso   1.00
N95    N     0.27880   0.25720   0.92390   0.01267  Uiso   1.00
N96    N     0.20940   0.18320   0.87440   0.01267  Uiso   1.00
