data_MAMVED_charged
_audit_creation_date              2014-07-02
_audit_creation_method            'Materials Studio'
_symmetry_space_group_name_H-M    'P1'
_symmetry_Int_Tables_number       1
_symmetry_cell_setting            triclinic
loop_
_symmetry_equiv_pos_as_xyz
  x,y,z
_cell_length_a                    27.1653
_cell_length_b                    27.1653
_cell_length_c                    37.9051
_cell_angle_alpha                 90.0000
_cell_angle_beta                  90.0000
_cell_angle_gamma                 90.0000
loop_
_atom_site_label
_atom_site_type_symbol
_atom_site_fract_x
_atom_site_fract_y
_atom_site_fract_z
_atom_site_U_iso_or_equiv
_atom_site_adp_type
_atom_site_occupancy
Rb1    Rb    0.75769   0.29044   0.99755   0.01267  Uiso   1.00
Rb2    Rb    0.53238   0.98887   0.75087   0.01267  Uiso   1.00
Rb3    Rb    0.24231   0.70956   0.49755   0.01267  Uiso   1.00
Rb4    Rb    0.46762   0.01113   0.25087   0.01267  Uiso   1.00
Rb5    Rb    0.20956   0.25769   0.24755   0.01267  Uiso   1.00
Rb6    Rb    0.51113   0.03238   0.00087   0.01267  Uiso   1.00
Rb7    Rb    0.79044   0.74231   0.74755   0.01267  Uiso   1.00
Rb8    Rb    0.48887   0.96762   0.50087   0.01267  Uiso   1.00
Rb9    Rb    0.74231   0.79044   0.25245   0.01267  Uiso   1.00
Rb10   Rb    0.96762   0.48887   0.49913   0.01267  Uiso   1.00
Rb11   Rb    0.25769   0.20956   0.75245   0.01267  Uiso   1.00
Rb12   Rb    0.03238   0.51113   0.99913   0.01267  Uiso   1.00
Rb13   Rb    0.29044   0.75769   0.00245   0.01267  Uiso   1.00
Rb14   Rb    0.98887   0.53238   0.24913   0.01267  Uiso   1.00
Rb15   Rb    0.70956   0.24231   0.50245   0.01267  Uiso   1.00
Rb16   Rb    0.01113   0.46762   0.74913   0.01267  Uiso   1.00
Rb17   Rb    0.40217   0.40217   0.00000   0.01267  Uiso   1.00
Rb18   Rb    0.59783   0.59783   0.50000   0.01267  Uiso   1.00
Rb19   Rb    0.09783   0.90217   0.25000   0.01267  Uiso   1.00
Rb20   Rb    0.90217   0.09783   0.75000   0.01267  Uiso   1.00
H1     H     0.98310   0.70010   0.10530   0.01267  Uiso   1.00
H2     H     0.68730   0.06750   0.86410   0.01267  Uiso   1.00
H3     H     0.80500   0.37100   0.03730   0.01267  Uiso   1.00
H4     H     0.68780   0.39350   0.02710   0.01267  Uiso   1.00
H5     H     0.73840   0.62380   0.95510   0.01267  Uiso   1.00
H6     H     0.60780   0.37920   0.03110   0.01267  Uiso   1.00
H7     H     0.58450   0.45960   0.13100   0.01267  Uiso   1.00
H8     H     0.53760   0.60680   0.02400   0.01267  Uiso   1.00
H9     H     0.54720   0.49270   0.19290   0.01267  Uiso   1.00
H10    H     0.67010   0.57300   0.23390   0.01267  Uiso   1.00
H11    H     0.60050   0.75020   0.16090   0.01267  Uiso   1.00
H12    H     0.69440   0.61640   0.27990   0.01267  Uiso   1.00
H13    H     0.85040   0.60190   0.23970   0.01267  Uiso   1.00
H14    H     0.91910   0.61220   0.24480   0.01267  Uiso   1.00
H15    H     0.95320   0.51050   0.15230   0.01267  Uiso   1.00
H16    H     0.87590   0.40680   0.04800   0.01267  Uiso   1.00
H17    H     0.95700   0.57830   0.96630   0.01267  Uiso   1.00
H18    H     0.46220   0.01590   0.87690   0.01267  Uiso   1.00
H19    H     0.38650   0.12400   0.80280   0.01267  Uiso   1.00
H20    H     0.54940   0.09900   0.70210   0.01267  Uiso   1.00
H21    H     0.50080   0.06960   0.90640   0.01267  Uiso   1.00
H22    H     0.55450   0.35920   0.99640   0.01267  Uiso   1.00
H23    H     0.57560   0.20410   0.99000   0.01267  Uiso   1.00
H24    H     0.76150   0.27150   0.92430   0.01267  Uiso   1.00
H25    H     0.42090   0.42990   0.90990   0.01267  Uiso   1.00
H26    H     0.53130   0.37600   0.98840   0.01267  Uiso   1.00
H27    H     0.62540   0.49460   0.92320   0.01267  Uiso   1.00
H28    H     0.34260   0.33100   0.79840   0.01267  Uiso   1.00
H29    H     0.39940   0.42040   0.89070   0.01267  Uiso   1.00
H30    H     0.34240   0.14630   0.75920   0.01267  Uiso   1.00
H31    H     0.34250   0.30490   0.79180   0.01267  Uiso   1.00
H32    H     0.57270   0.30140   0.71180   0.01267  Uiso   1.00
H33    H     0.85630   0.46070   0.97940   0.01267  Uiso   1.00
H34    H     0.78950   0.40570   0.97610   0.01267  Uiso   1.00
H35    H     0.75640   0.43720   0.04220   0.01267  Uiso   1.00
H36    H     0.70300   0.46300   0.97980   0.01267  Uiso   1.00
H37    H     0.76270   0.53270   0.01890   0.01267  Uiso   1.00
H38    H     0.69540   0.56560   0.98170   0.01267  Uiso   1.00
H39    H     0.72410   0.54440   0.94810   0.01267  Uiso   1.00
H40    H     0.63100   0.46850   0.99670   0.01267  Uiso   1.00
H41    H     0.57500   0.44380   0.04170   0.01267  Uiso   1.00
H42    H     0.64960   0.46870   0.09070   0.01267  Uiso   1.00
H43    H     0.56010   0.52580   0.08270   0.01267  Uiso   1.00
H44    H     0.65820   0.55490   0.06020   0.01267  Uiso   1.00
H45    H     0.61240   0.62210   0.03260   0.01267  Uiso   1.00
H46    H     0.60620   0.62370   0.07450   0.01267  Uiso   1.00
H47    H     0.54410   0.55720   0.13070   0.01267  Uiso   1.00
H48    H     0.56140   0.56780   0.19230   0.01267  Uiso   1.00
H49    H     0.66000   0.54740   0.17310   0.01267  Uiso   1.00
H50    H     0.62240   0.63790   0.19980   0.01267  Uiso   1.00
H51    H     0.65610   0.61930   0.12890   0.01267  Uiso   1.00
H52    H     0.62480   0.69900   0.11700   0.01267  Uiso   1.00
H53    H     0.66600   0.70230   0.14700   0.01267  Uiso   1.00
H54    H     0.67360   0.67800   0.22580   0.01267  Uiso   1.00
H55    H     0.74660   0.66950   0.26070   0.01267  Uiso   1.00
H56    H     0.77590   0.59680   0.20820   0.01267  Uiso   1.00
H57    H     0.82480   0.68860   0.21860   0.01267  Uiso   1.00
H58    H     0.75850   0.67000   0.16000   0.01267  Uiso   1.00
H59    H     0.76550   0.75700   0.14940   0.01267  Uiso   1.00
H60    H     0.81830   0.73090   0.14630   0.01267  Uiso   1.00
H61    H     0.89570   0.68100   0.20260   0.01267  Uiso   1.00
H62    H     0.95870   0.62080   0.19660   0.01267  Uiso   1.00
H63    H     0.88460   0.56180   0.16300   0.01267  Uiso   1.00
H64    H     0.96980   0.60110   0.12940   0.01267  Uiso   1.00
H65    H     0.87050   0.63720   0.11870   0.01267  Uiso   1.00
H66    H     0.90450   0.69760   0.08290   0.01267  Uiso   1.00
H67    H     0.91450   0.64360   0.06770   0.01267  Uiso   1.00
H68    H     0.99110   0.55210   0.08910   0.01267  Uiso   1.00
H69    H     0.97980   0.46940   0.06660   0.01267  Uiso   1.00
H70    H     0.87760   0.47800   0.08490   0.01267  Uiso   1.00
H71    H     0.91010   0.47770   0.01240   0.01267  Uiso   1.00
H72    H     0.88000   0.56630   0.04870   0.01267  Uiso   1.00
H73    H     0.90420   0.60980   0.99900   0.01267  Uiso   1.00
H74    H     0.86570   0.56800   0.98710   0.01267  Uiso   1.00
H75    H     0.54750   0.03640   0.84480   0.01267  Uiso   1.00
H76    H     0.46710   0.03100   0.82040   0.01267  Uiso   1.00
H77    H     0.45910   0.13350   0.83910   0.01267  Uiso   1.00
H78    H     0.46030   0.10060   0.76710   0.01267  Uiso   1.00
H79    H     0.54300   0.14810   0.80180   0.01267  Uiso   1.00
H80    H     0.58830   0.12560   0.75060   0.01267  Uiso   1.00
H81    H     0.54360   0.16130   0.74050   0.01267  Uiso   1.00
H82    H     0.65450   0.16220   0.95580   0.01267  Uiso   1.00
H83    H     0.60520   0.09280   0.95240   0.01267  Uiso   1.00
H84    H     0.53400   0.14690   0.91360   0.01267  Uiso   1.00
H85    H     0.59470   0.06990   0.88310   0.01267  Uiso   1.00
H86    H     0.60640   0.17210   0.87090   0.01267  Uiso   1.00
H87    H     0.68200   0.14510   0.84260   0.01267  Uiso   1.00
H88    H     0.63310   0.13080   0.82150   0.01267  Uiso   1.00
H89    H     0.64150   0.38320   0.96670   0.01267  Uiso   1.00
H90    H     0.64420   0.31100   0.00250   0.01267  Uiso   1.00
H91    H     0.56450   0.27670   0.95870   0.01267  Uiso   1.00
H92    H     0.66150   0.23590   0.96240   0.01267  Uiso   1.00
H93    H     0.62520   0.29180   0.90460   0.01267  Uiso   1.00
H94    H     0.70970   0.28730   0.88580   0.01267  Uiso   1.00
H95    H     0.68610   0.23350   0.88820   0.01267  Uiso   1.00
H96    H     0.47850   0.48900   0.88390   0.01267  Uiso   1.00
H97    H     0.49400   0.47400   0.94580   0.01267  Uiso   1.00
H98    H     0.50100   0.37230   0.92890   0.01267  Uiso   1.00
H99    H     0.58430   0.42870   0.95050   0.01267  Uiso   1.00
H100   H     0.56780   0.39890   0.87820   0.01267  Uiso   1.00
H101   H     0.63220   0.45500   0.86490   0.01267  Uiso   1.00
H102   H     0.64970   0.40820   0.88710   0.01267  Uiso   1.00
H103   H     0.39630   0.37260   0.75700   0.01267  Uiso   1.00
H104   H     0.36840   0.42610   0.80280   0.01267  Uiso   1.00
H105   H     0.41680   0.35960   0.84970   0.01267  Uiso   1.00
H106   H     0.44180   0.46190   0.83890   0.01267  Uiso   1.00
H107   H     0.50210   0.38290   0.81080   0.01267  Uiso   1.00
H108   H     0.54500   0.44110   0.78000   0.01267  Uiso   1.00
H109   H     0.53910   0.46350   0.81890   0.01267  Uiso   1.00
H110   H     0.43370   0.15550   0.73530   0.01267  Uiso   1.00
H111   H     0.36710   0.21020   0.73480   0.01267  Uiso   1.00
H112   H     0.39800   0.24390   0.80310   0.01267  Uiso   1.00
H113   H     0.40820   0.30390   0.74090   0.01267  Uiso   1.00
H114   H     0.49020   0.25620   0.77440   0.01267  Uiso   1.00
H115   H     0.50690   0.33140   0.74100   0.01267  Uiso   1.00
H116   H     0.48990   0.30250   0.70630   0.01267  Uiso   1.00
H117   H     0.01690   0.29990   0.60530   0.01267  Uiso   1.00
H118   H     0.31270   0.93250   0.36410   0.01267  Uiso   1.00
H119   H     0.19500   0.62900   0.53730   0.01267  Uiso   1.00
H120   H     0.31220   0.60650   0.52710   0.01267  Uiso   1.00
H121   H     0.26160   0.37620   0.45510   0.01267  Uiso   1.00
H122   H     0.39220   0.62080   0.53110   0.01267  Uiso   1.00
H123   H     0.41550   0.54040   0.63100   0.01267  Uiso   1.00
H124   H     0.46240   0.39320   0.52400   0.01267  Uiso   1.00
H125   H     0.45280   0.50730   0.69290   0.01267  Uiso   1.00
H126   H     0.32990   0.42700   0.73390   0.01267  Uiso   1.00
H127   H     0.39950   0.24980   0.66090   0.01267  Uiso   1.00
H128   H     0.30560   0.38360   0.77990   0.01267  Uiso   1.00
H129   H     0.14960   0.39810   0.73970   0.01267  Uiso   1.00
H130   H     0.08090   0.38780   0.74480   0.01267  Uiso   1.00
H131   H     0.04680   0.48950   0.65230   0.01267  Uiso   1.00
H132   H     0.12410   0.59320   0.54800   0.01267  Uiso   1.00
H133   H     0.04300   0.42170   0.46630   0.01267  Uiso   1.00
H134   H     0.53780   0.98410   0.37690   0.01267  Uiso   1.00
H135   H     0.61350   0.87600   0.30280   0.01267  Uiso   1.00
H136   H     0.45060   0.90100   0.20210   0.01267  Uiso   1.00
H137   H     0.49920   0.93040   0.40640   0.01267  Uiso   1.00
H138   H     0.44550   0.64080   0.49640   0.01267  Uiso   1.00
H139   H     0.42440   0.79590   0.49000   0.01267  Uiso   1.00
H140   H     0.23850   0.72850   0.42430   0.01267  Uiso   1.00
H141   H     0.57910   0.57010   0.40990   0.01267  Uiso   1.00
H142   H     0.46870   0.62400   0.48840   0.01267  Uiso   1.00
H143   H     0.37460   0.50540   0.42320   0.01267  Uiso   1.00
H144   H     0.65740   0.66900   0.29840   0.01267  Uiso   1.00
H145   H     0.60060   0.57960   0.39070   0.01267  Uiso   1.00
H146   H     0.65760   0.85370   0.25920   0.01267  Uiso   1.00
H147   H     0.65750   0.69510   0.29180   0.01267  Uiso   1.00
H148   H     0.42730   0.69860   0.21180   0.01267  Uiso   1.00
H149   H     0.14370   0.53930   0.47940   0.01267  Uiso   1.00
H150   H     0.21050   0.59430   0.47610   0.01267  Uiso   1.00
H151   H     0.24360   0.56280   0.54220   0.01267  Uiso   1.00
H152   H     0.29700   0.53700   0.47980   0.01267  Uiso   1.00
H153   H     0.23730   0.46730   0.51890   0.01267  Uiso   1.00
H154   H     0.30460   0.43440   0.48170   0.01267  Uiso   1.00
H155   H     0.27590   0.45560   0.44810   0.01267  Uiso   1.00
H156   H     0.36900   0.53150   0.49670   0.01267  Uiso   1.00
H157   H     0.42500   0.55620   0.54170   0.01267  Uiso   1.00
H158   H     0.35040   0.53130   0.59070   0.01267  Uiso   1.00
H159   H     0.43990   0.47420   0.58270   0.01267  Uiso   1.00
H160   H     0.34180   0.44510   0.56020   0.01267  Uiso   1.00
H161   H     0.38760   0.37790   0.53260   0.01267  Uiso   1.00
H162   H     0.39380   0.37630   0.57450   0.01267  Uiso   1.00
H163   H     0.45590   0.44280   0.63070   0.01267  Uiso   1.00
H164   H     0.43860   0.43220   0.69230   0.01267  Uiso   1.00
H165   H     0.34000   0.45260   0.67310   0.01267  Uiso   1.00
H166   H     0.37760   0.36210   0.69980   0.01267  Uiso   1.00
H167   H     0.34390   0.38070   0.62890   0.01267  Uiso   1.00
H168   H     0.37520   0.30100   0.61700   0.01267  Uiso   1.00
H169   H     0.33400   0.29770   0.64700   0.01267  Uiso   1.00
H170   H     0.32640   0.32200   0.72580   0.01267  Uiso   1.00
H171   H     0.25340   0.33050   0.76070   0.01267  Uiso   1.00
H172   H     0.22410   0.40320   0.70820   0.01267  Uiso   1.00
H173   H     0.17520   0.31140   0.71860   0.01267  Uiso   1.00
H174   H     0.24150   0.33000   0.66000   0.01267  Uiso   1.00
H175   H     0.23450   0.24300   0.64940   0.01267  Uiso   1.00
H176   H     0.18170   0.26910   0.64630   0.01267  Uiso   1.00
H177   H     0.10430   0.31900   0.70260   0.01267  Uiso   1.00
H178   H     0.04130   0.37920   0.69660   0.01267  Uiso   1.00
H179   H     0.11540   0.43820   0.66300   0.01267  Uiso   1.00
H180   H     0.03020   0.39890   0.62940   0.01267  Uiso   1.00
H181   H     0.12950   0.36280   0.61870   0.01267  Uiso   1.00
H182   H     0.09550   0.30240   0.58290   0.01267  Uiso   1.00
H183   H     0.08550   0.35640   0.56770   0.01267  Uiso   1.00
H184   H     0.00890   0.44790   0.58910   0.01267  Uiso   1.00
H185   H     0.02020   0.53060   0.56660   0.01267  Uiso   1.00
H186   H     0.12240   0.52200   0.58490   0.01267  Uiso   1.00
H187   H     0.08990   0.52230   0.51240   0.01267  Uiso   1.00
H188   H     0.12000   0.43370   0.54870   0.01267  Uiso   1.00
H189   H     0.09580   0.39020   0.49900   0.01267  Uiso   1.00
H190   H     0.13430   0.43200   0.48710   0.01267  Uiso   1.00
H191   H     0.45250   0.96360   0.34480   0.01267  Uiso   1.00
H192   H     0.53290   0.96900   0.32040   0.01267  Uiso   1.00
H193   H     0.54090   0.86650   0.33910   0.01267  Uiso   1.00
H194   H     0.53970   0.89940   0.26710   0.01267  Uiso   1.00
H195   H     0.45700   0.85190   0.30180   0.01267  Uiso   1.00
H196   H     0.41170   0.87440   0.25060   0.01267  Uiso   1.00
H197   H     0.45640   0.83870   0.24050   0.01267  Uiso   1.00
H198   H     0.34550   0.83780   0.45580   0.01267  Uiso   1.00
H199   H     0.39480   0.90720   0.45240   0.01267  Uiso   1.00
H200   H     0.46600   0.85310   0.41360   0.01267  Uiso   1.00
H201   H     0.40530   0.93010   0.38310   0.01267  Uiso   1.00
H202   H     0.39360   0.82790   0.37090   0.01267  Uiso   1.00
H203   H     0.31800   0.85490   0.34260   0.01267  Uiso   1.00
H204   H     0.36690   0.86920   0.32150   0.01267  Uiso   1.00
H205   H     0.35850   0.61680   0.46670   0.01267  Uiso   1.00
H206   H     0.35580   0.68900   0.50250   0.01267  Uiso   1.00
H207   H     0.43550   0.72330   0.45870   0.01267  Uiso   1.00
H208   H     0.33850   0.76410   0.46240   0.01267  Uiso   1.00
H209   H     0.37480   0.70820   0.40460   0.01267  Uiso   1.00
H210   H     0.29030   0.71270   0.38580   0.01267  Uiso   1.00
H211   H     0.31390   0.76650   0.38820   0.01267  Uiso   1.00
H212   H     0.52150   0.51100   0.38390   0.01267  Uiso   1.00
H213   H     0.50600   0.52600   0.44580   0.01267  Uiso   1.00
H214   H     0.49900   0.62770   0.42890   0.01267  Uiso   1.00
H215   H     0.41570   0.57130   0.45050   0.01267  Uiso   1.00
H216   H     0.43220   0.60110   0.37820   0.01267  Uiso   1.00
H217   H     0.36780   0.54500   0.36490   0.01267  Uiso   1.00
H218   H     0.35030   0.59180   0.38710   0.01267  Uiso   1.00
H219   H     0.60370   0.62740   0.25700   0.01267  Uiso   1.00
H220   H     0.63160   0.57390   0.30280   0.01267  Uiso   1.00
H221   H     0.58320   0.64040   0.34970   0.01267  Uiso   1.00
H222   H     0.55820   0.53810   0.33890   0.01267  Uiso   1.00
H223   H     0.49790   0.61710   0.31080   0.01267  Uiso   1.00
H224   H     0.45500   0.55890   0.28000   0.01267  Uiso   1.00
H225   H     0.46090   0.53650   0.31890   0.01267  Uiso   1.00
H226   H     0.56630   0.84450   0.23530   0.01267  Uiso   1.00
H227   H     0.63290   0.78980   0.23480   0.01267  Uiso   1.00
H228   H     0.60200   0.75610   0.30310   0.01267  Uiso   1.00
H229   H     0.59180   0.69610   0.24090   0.01267  Uiso   1.00
H230   H     0.50980   0.74380   0.27440   0.01267  Uiso   1.00
H231   H     0.49310   0.66860   0.24100   0.01267  Uiso   1.00
H232   H     0.51010   0.69750   0.20630   0.01267  Uiso   1.00
H233   H     0.79990   0.48310   0.35530   0.01267  Uiso   1.00
H234   H     0.43250   0.18730   0.11410   0.01267  Uiso   1.00
H235   H     0.12900   0.30500   0.28730   0.01267  Uiso   1.00
H236   H     0.10650   0.18780   0.27710   0.01267  Uiso   1.00
H237   H     0.87620   0.23840   0.20510   0.01267  Uiso   1.00
H238   H     0.12080   0.10780   0.28110   0.01267  Uiso   1.00
H239   H     0.04040   0.08450   0.38100   0.01267  Uiso   1.00
H240   H     0.89320   0.03760   0.27400   0.01267  Uiso   1.00
H241   H     0.00730   0.04720   0.44290   0.01267  Uiso   1.00
H242   H     0.92700   0.17010   0.48390   0.01267  Uiso   1.00
H243   H     0.74980   0.10050   0.41090   0.01267  Uiso   1.00
H244   H     0.88360   0.19440   0.52990   0.01267  Uiso   1.00
H245   H     0.89810   0.35040   0.48970   0.01267  Uiso   1.00
H246   H     0.88780   0.41910   0.49480   0.01267  Uiso   1.00
H247   H     0.98950   0.45320   0.40230   0.01267  Uiso   1.00
H248   H     0.09320   0.37590   0.29800   0.01267  Uiso   1.00
H249   H     0.92170   0.45700   0.21630   0.01267  Uiso   1.00
H250   H     0.48410   0.96220   0.12690   0.01267  Uiso   1.00
H251   H     0.37600   0.88650   0.05280   0.01267  Uiso   1.00
H252   H     0.40100   0.04940   0.95210   0.01267  Uiso   1.00
H253   H     0.43040   0.00080   0.15640   0.01267  Uiso   1.00
H254   H     0.14080   0.05450   0.24640   0.01267  Uiso   1.00
H255   H     0.29590   0.07560   0.24000   0.01267  Uiso   1.00
H256   H     0.22850   0.26150   0.17430   0.01267  Uiso   1.00
H257   H     0.07010   0.92090   0.15990   0.01267  Uiso   1.00
H258   H     0.12400   0.03130   0.23840   0.01267  Uiso   1.00
H259   H     0.00540   0.12540   0.17320   0.01267  Uiso   1.00
H260   H     0.16900   0.84260   0.04840   0.01267  Uiso   1.00
H261   H     0.07960   0.89940   0.14070   0.01267  Uiso   1.00
H262   H     0.35370   0.84240   0.00920   0.01267  Uiso   1.00
H263   H     0.19510   0.84250   0.04180   0.01267  Uiso   1.00
H264   H     0.19860   0.07270   0.96180   0.01267  Uiso   1.00
H265   H     0.03930   0.35630   0.22940   0.01267  Uiso   1.00
H266   H     0.09430   0.28950   0.22610   0.01267  Uiso   1.00
H267   H     0.06280   0.25640   0.29220   0.01267  Uiso   1.00
H268   H     0.03700   0.20300   0.22980   0.01267  Uiso   1.00
H269   H     0.96730   0.26270   0.26890   0.01267  Uiso   1.00
H270   H     0.93440   0.19540   0.23170   0.01267  Uiso   1.00
H271   H     0.95560   0.22410   0.19810   0.01267  Uiso   1.00
H272   H     0.03150   0.13100   0.24670   0.01267  Uiso   1.00
H273   H     0.05620   0.07500   0.29170   0.01267  Uiso   1.00
H274   H     0.03130   0.14960   0.34070   0.01267  Uiso   1.00
H275   H     0.97420   0.06010   0.33270   0.01267  Uiso   1.00
H276   H     0.94510   0.15820   0.31020   0.01267  Uiso   1.00
H277   H     0.87790   0.11240   0.28260   0.01267  Uiso   1.00
H278   H     0.87630   0.10620   0.32450   0.01267  Uiso   1.00
H279   H     0.94280   0.04410   0.38070   0.01267  Uiso   1.00
H280   H     0.93220   0.06140   0.44230   0.01267  Uiso   1.00
H281   H     0.95260   0.16000   0.42310   0.01267  Uiso   1.00
H282   H     0.86210   0.12240   0.44980   0.01267  Uiso   1.00
H283   H     0.88070   0.15610   0.37890   0.01267  Uiso   1.00
H284   H     0.80100   0.12480   0.36700   0.01267  Uiso   1.00
H285   H     0.79770   0.16600   0.39700   0.01267  Uiso   1.00
H286   H     0.82200   0.17360   0.47580   0.01267  Uiso   1.00
H287   H     0.83050   0.24660   0.51070   0.01267  Uiso   1.00
H288   H     0.90320   0.27590   0.45820   0.01267  Uiso   1.00
H289   H     0.81140   0.32480   0.46860   0.01267  Uiso   1.00
H290   H     0.83000   0.25850   0.41000   0.01267  Uiso   1.00
H291   H     0.74300   0.26550   0.39940   0.01267  Uiso   1.00
H292   H     0.76910   0.31830   0.39630   0.01267  Uiso   1.00
H293   H     0.81900   0.39570   0.45260   0.01267  Uiso   1.00
H294   H     0.87920   0.45870   0.44660   0.01267  Uiso   1.00
H295   H     0.93820   0.38460   0.41300   0.01267  Uiso   1.00
H296   H     0.89890   0.46980   0.37940   0.01267  Uiso   1.00
H297   H     0.86280   0.37050   0.36870   0.01267  Uiso   1.00
H298   H     0.80240   0.40450   0.33290   0.01267  Uiso   1.00
H299   H     0.85640   0.41450   0.31770   0.01267  Uiso   1.00
H300   H     0.94790   0.49110   0.33910   0.01267  Uiso   1.00
H301   H     0.03060   0.47980   0.31660   0.01267  Uiso   1.00
H302   H     0.02200   0.37760   0.33490   0.01267  Uiso   1.00
H303   H     0.02230   0.41010   0.26240   0.01267  Uiso   1.00
H304   H     0.93370   0.38000   0.29870   0.01267  Uiso   1.00
H305   H     0.89020   0.40420   0.24900   0.01267  Uiso   1.00
H306   H     0.93200   0.36570   0.23710   0.01267  Uiso   1.00
H307   H     0.46360   0.04750   0.09480   0.01267  Uiso   1.00
H308   H     0.46900   0.96710   0.07040   0.01267  Uiso   1.00
H309   H     0.36650   0.95910   0.08910   0.01267  Uiso   1.00
H310   H     0.39940   0.96030   0.01710   0.01267  Uiso   1.00
H311   H     0.35190   0.04300   0.05180   0.01267  Uiso   1.00
H312   H     0.37440   0.08830   0.00060   0.01267  Uiso   1.00
H313   H     0.33870   0.04360   0.99050   0.01267  Uiso   1.00
H314   H     0.33780   0.15450   0.20580   0.01267  Uiso   1.00
H315   H     0.40720   0.10520   0.20240   0.01267  Uiso   1.00
H316   H     0.35310   0.03400   0.16360   0.01267  Uiso   1.00
H317   H     0.43010   0.09470   0.13310   0.01267  Uiso   1.00
H318   H     0.32790   0.10640   0.12090   0.01267  Uiso   1.00
H319   H     0.35490   0.18200   0.09260   0.01267  Uiso   1.00
H320   H     0.36920   0.13310   0.07150   0.01267  Uiso   1.00
H321   H     0.11680   0.14150   0.21670   0.01267  Uiso   1.00
H322   H     0.18900   0.14420   0.25250   0.01267  Uiso   1.00
H323   H     0.22330   0.06450   0.20870   0.01267  Uiso   1.00
H324   H     0.26410   0.16150   0.21240   0.01267  Uiso   1.00
H325   H     0.20820   0.12520   0.15460   0.01267  Uiso   1.00
H326   H     0.21270   0.20970   0.13580   0.01267  Uiso   1.00
H327   H     0.26650   0.18610   0.13820   0.01267  Uiso   1.00
H328   H     0.01100   0.97850   0.13390   0.01267  Uiso   1.00
H329   H     0.02600   0.99400   0.19580   0.01267  Uiso   1.00
H330   H     0.12770   0.00100   0.17890   0.01267  Uiso   1.00
H331   H     0.07130   0.08430   0.20050   0.01267  Uiso   1.00
H332   H     0.10110   0.06780   0.12820   0.01267  Uiso   1.00
H333   H     0.04500   0.13220   0.11490   0.01267  Uiso   1.00
H334   H     0.09180   0.14970   0.13710   0.01267  Uiso   1.00
H335   H     0.12740   0.89630   0.00700   0.01267  Uiso   1.00
H336   H     0.07390   0.86840   0.05280   0.01267  Uiso   1.00
H337   H     0.14040   0.91680   0.09970   0.01267  Uiso   1.00
H338   H     0.03810   0.94180   0.08890   0.01267  Uiso   1.00
H339   H     0.11710   0.00210   0.06080   0.01267  Uiso   1.00
H340   H     0.05890   0.04500   0.03000   0.01267  Uiso   1.00
H341   H     0.03650   0.03910   0.06890   0.01267  Uiso   1.00
H342   H     0.34450   0.93370   0.98530   0.01267  Uiso   1.00
H343   H     0.28980   0.86710   0.98480   0.01267  Uiso   1.00
H344   H     0.25610   0.89800   0.05310   0.01267  Uiso   1.00
H345   H     0.19610   0.90820   0.99090   0.01267  Uiso   1.00
H346   H     0.24380   0.99020   0.02440   0.01267  Uiso   1.00
H347   H     0.16860   0.00690   0.99100   0.01267  Uiso   1.00
H348   H     0.19750   0.98990   0.95630   0.01267  Uiso   1.00
H349   H     0.20010   0.51690   0.85530   0.01267  Uiso   1.00
H350   H     0.56750   0.81270   0.61410   0.01267  Uiso   1.00
H351   H     0.87100   0.69500   0.78730   0.01267  Uiso   1.00
H352   H     0.89350   0.81220   0.77710   0.01267  Uiso   1.00
H353   H     0.12380   0.76160   0.70510   0.01267  Uiso   1.00
H354   H     0.87920   0.89220   0.78110   0.01267  Uiso   1.00
H355   H     0.95960   0.91550   0.88100   0.01267  Uiso   1.00
H356   H     0.10680   0.96240   0.77400   0.01267  Uiso   1.00
H357   H     0.99270   0.95280   0.94290   0.01267  Uiso   1.00
H358   H     0.07300   0.82990   0.98390   0.01267  Uiso   1.00
H359   H     0.25020   0.89950   0.91090   0.01267  Uiso   1.00
H360   H     0.11640   0.80560   0.02990   0.01267  Uiso   1.00
H361   H     0.10190   0.64960   0.98970   0.01267  Uiso   1.00
H362   H     0.11220   0.58090   0.99480   0.01267  Uiso   1.00
H363   H     0.01050   0.54680   0.90230   0.01267  Uiso   1.00
H364   H     0.90680   0.62410   0.79800   0.01267  Uiso   1.00
H365   H     0.07830   0.54300   0.71630   0.01267  Uiso   1.00
H366   H     0.51590   0.03780   0.62690   0.01267  Uiso   1.00
H367   H     0.62400   0.11350   0.55280   0.01267  Uiso   1.00
H368   H     0.59900   0.95060   0.45210   0.01267  Uiso   1.00
H369   H     0.56960   0.99920   0.65640   0.01267  Uiso   1.00
H370   H     0.85920   0.94550   0.74640   0.01267  Uiso   1.00
H371   H     0.70410   0.92440   0.74000   0.01267  Uiso   1.00
H372   H     0.77150   0.73850   0.67430   0.01267  Uiso   1.00
H373   H     0.92990   0.07910   0.65990   0.01267  Uiso   1.00
H374   H     0.87600   0.96870   0.73840   0.01267  Uiso   1.00
H375   H     0.99460   0.87460   0.67320   0.01267  Uiso   1.00
H376   H     0.83100   0.15740   0.54840   0.01267  Uiso   1.00
H377   H     0.92040   0.10060   0.64070   0.01267  Uiso   1.00
H378   H     0.64630   0.15760   0.50920   0.01267  Uiso   1.00
H379   H     0.80490   0.15750   0.54180   0.01267  Uiso   1.00
H380   H     0.80140   0.92730   0.46180   0.01267  Uiso   1.00
H381   H     0.96070   0.64370   0.72940   0.01267  Uiso   1.00
H382   H     0.90570   0.71050   0.72610   0.01267  Uiso   1.00
H383   H     0.93720   0.74360   0.79220   0.01267  Uiso   1.00
H384   H     0.96300   0.79700   0.72980   0.01267  Uiso   1.00
H385   H     0.03270   0.73730   0.76890   0.01267  Uiso   1.00
H386   H     0.06560   0.80460   0.73170   0.01267  Uiso   1.00
H387   H     0.04440   0.77590   0.69810   0.01267  Uiso   1.00
H388   H     0.96850   0.86900   0.74670   0.01267  Uiso   1.00
H389   H     0.94380   0.92500   0.79170   0.01267  Uiso   1.00
H390   H     0.96870   0.85040   0.84070   0.01267  Uiso   1.00
H391   H     0.02580   0.93990   0.83270   0.01267  Uiso   1.00
H392   H     0.05490   0.84180   0.81020   0.01267  Uiso   1.00
H393   H     0.12210   0.88760   0.78260   0.01267  Uiso   1.00
H394   H     0.12370   0.89380   0.82450   0.01267  Uiso   1.00
H395   H     0.05720   0.95590   0.88070   0.01267  Uiso   1.00
H396   H     0.06780   0.93860   0.94230   0.01267  Uiso   1.00
H397   H     0.04740   0.84000   0.92310   0.01267  Uiso   1.00
H398   H     0.13790   0.87760   0.94980   0.01267  Uiso   1.00
H399   H     0.11930   0.84390   0.87890   0.01267  Uiso   1.00
H400   H     0.19900   0.87520   0.86700   0.01267  Uiso   1.00
H401   H     0.20230   0.83400   0.89700   0.01267  Uiso   1.00
H402   H     0.17800   0.82640   0.97580   0.01267  Uiso   1.00
H403   H     0.16950   0.75340   0.01070   0.01267  Uiso   1.00
H404   H     0.09680   0.72410   0.95820   0.01267  Uiso   1.00
H405   H     0.18860   0.67520   0.96860   0.01267  Uiso   1.00
H406   H     0.17000   0.74150   0.91000   0.01267  Uiso   1.00
H407   H     0.25700   0.73450   0.89940   0.01267  Uiso   1.00
H408   H     0.23090   0.68170   0.89630   0.01267  Uiso   1.00
H409   H     0.18100   0.60430   0.95260   0.01267  Uiso   1.00
H410   H     0.12080   0.54130   0.94660   0.01267  Uiso   1.00
H411   H     0.06180   0.61540   0.91300   0.01267  Uiso   1.00
H412   H     0.10110   0.53020   0.87940   0.01267  Uiso   1.00
H413   H     0.13720   0.62950   0.86870   0.01267  Uiso   1.00
H414   H     0.19760   0.59550   0.83290   0.01267  Uiso   1.00
H415   H     0.14360   0.58550   0.81770   0.01267  Uiso   1.00
H416   H     0.05210   0.50890   0.83910   0.01267  Uiso   1.00
H417   H     0.96940   0.52020   0.81660   0.01267  Uiso   1.00
H418   H     0.97800   0.62240   0.83490   0.01267  Uiso   1.00
H419   H     0.97770   0.58990   0.76240   0.01267  Uiso   1.00
H420   H     0.06630   0.62000   0.79870   0.01267  Uiso   1.00
H421   H     0.10980   0.59580   0.74900   0.01267  Uiso   1.00
H422   H     0.06800   0.63430   0.73710   0.01267  Uiso   1.00
H423   H     0.53640   0.95250   0.59480   0.01267  Uiso   1.00
H424   H     0.53100   0.03290   0.57040   0.01267  Uiso   1.00
H425   H     0.63350   0.04090   0.58910   0.01267  Uiso   1.00
H426   H     0.60060   0.03970   0.51710   0.01267  Uiso   1.00
H427   H     0.64810   0.95700   0.55180   0.01267  Uiso   1.00
H428   H     0.62560   0.91170   0.50060   0.01267  Uiso   1.00
H429   H     0.66130   0.95640   0.49050   0.01267  Uiso   1.00
H430   H     0.66220   0.84550   0.70580   0.01267  Uiso   1.00
H431   H     0.59280   0.89480   0.70240   0.01267  Uiso   1.00
H432   H     0.64690   0.96600   0.66360   0.01267  Uiso   1.00
H433   H     0.56990   0.90530   0.63310   0.01267  Uiso   1.00
H434   H     0.67210   0.89360   0.62090   0.01267  Uiso   1.00
H435   H     0.64510   0.81800   0.59260   0.01267  Uiso   1.00
H436   H     0.63080   0.86690   0.57150   0.01267  Uiso   1.00
H437   H     0.88320   0.85850   0.71670   0.01267  Uiso   1.00
H438   H     0.81100   0.85580   0.75250   0.01267  Uiso   1.00
H439   H     0.77670   0.93550   0.70870   0.01267  Uiso   1.00
H440   H     0.73590   0.83850   0.71240   0.01267  Uiso   1.00
H441   H     0.79180   0.87480   0.65460   0.01267  Uiso   1.00
H442   H     0.78730   0.79030   0.63580   0.01267  Uiso   1.00
H443   H     0.73350   0.81390   0.63820   0.01267  Uiso   1.00
H444   H     0.98900   0.02150   0.63390   0.01267  Uiso   1.00
H445   H     0.97400   0.00600   0.69580   0.01267  Uiso   1.00
H446   H     0.87230   0.99900   0.67890   0.01267  Uiso   1.00
H447   H     0.92870   0.91570   0.70050   0.01267  Uiso   1.00
H448   H     0.89890   0.93220   0.62820   0.01267  Uiso   1.00
H449   H     0.95500   0.86780   0.61490   0.01267  Uiso   1.00
H450   H     0.90820   0.85030   0.63710   0.01267  Uiso   1.00
H451   H     0.87260   0.10370   0.50700   0.01267  Uiso   1.00
H452   H     0.92610   0.13160   0.55280   0.01267  Uiso   1.00
H453   H     0.85960   0.08320   0.59970   0.01267  Uiso   1.00
H454   H     0.96190   0.05820   0.58890   0.01267  Uiso   1.00
H455   H     0.88290   0.99790   0.56080   0.01267  Uiso   1.00
H456   H     0.94110   0.95500   0.53000   0.01267  Uiso   1.00
H457   H     0.96350   0.96090   0.56890   0.01267  Uiso   1.00
H458   H     0.65550   0.06630   0.48530   0.01267  Uiso   1.00
H459   H     0.71020   0.13290   0.48480   0.01267  Uiso   1.00
H460   H     0.74390   0.10200   0.55310   0.01267  Uiso   1.00
H461   H     0.80390   0.09180   0.49090   0.01267  Uiso   1.00
H462   H     0.75620   0.00980   0.52440   0.01267  Uiso   1.00
H463   H     0.83140   0.99310   0.49100   0.01267  Uiso   1.00
H464   H     0.80250   0.01010   0.45630   0.01267  Uiso   1.00
H465   H     0.51690   0.20010   0.14470   0.01267  Uiso   1.00
H466   H     0.81270   0.56750   0.38590   0.01267  Uiso   1.00
H467   H     0.69500   0.87100   0.21270   0.01267  Uiso   1.00
H468   H     0.81220   0.89350   0.22290   0.01267  Uiso   1.00
H469   H     0.76160   0.12380   0.29490   0.01267  Uiso   1.00
H470   H     0.89220   0.87920   0.21890   0.01267  Uiso   1.00
H471   H     0.91550   0.95960   0.11900   0.01267  Uiso   1.00
H472   H     0.96240   0.10680   0.22600   0.01267  Uiso   1.00
H473   H     0.95280   0.99270   0.05710   0.01267  Uiso   1.00
H474   H     0.82990   0.07300   0.01610   0.01267  Uiso   1.00
H475   H     0.89950   0.25020   0.08910   0.01267  Uiso   1.00
H476   H     0.80560   0.11640   0.97010   0.01267  Uiso   1.00
H477   H     0.64960   0.10190   0.01030   0.01267  Uiso   1.00
H478   H     0.58090   0.11220   0.00520   0.01267  Uiso   1.00
H479   H     0.54680   0.01050   0.09770   0.01267  Uiso   1.00
H480   H     0.62410   0.90680   0.20200   0.01267  Uiso   1.00
H481   H     0.54300   0.07830   0.28370   0.01267  Uiso   1.00
H482   H     0.03780   0.51590   0.37310   0.01267  Uiso   1.00
H483   H     0.11350   0.62400   0.44720   0.01267  Uiso   1.00
H484   H     0.95060   0.59900   0.54790   0.01267  Uiso   1.00
H485   H     0.99920   0.56960   0.34360   0.01267  Uiso   1.00
H486   H     0.94550   0.85920   0.25360   0.01267  Uiso   1.00
H487   H     0.92440   0.70410   0.26000   0.01267  Uiso   1.00
H488   H     0.73850   0.77150   0.32570   0.01267  Uiso   1.00
H489   H     0.07910   0.92990   0.34010   0.01267  Uiso   1.00
H490   H     0.96870   0.87600   0.26160   0.01267  Uiso   1.00
H491   H     0.87460   0.99460   0.32680   0.01267  Uiso   1.00
H492   H     0.15740   0.83100   0.45160   0.01267  Uiso   1.00
H493   H     0.10060   0.92040   0.35930   0.01267  Uiso   1.00
H494   H     0.15760   0.64630   0.49080   0.01267  Uiso   1.00
H495   H     0.15750   0.80490   0.45820   0.01267  Uiso   1.00
H496   H     0.92730   0.80140   0.53820   0.01267  Uiso   1.00
H497   H     0.64370   0.96070   0.27060   0.01267  Uiso   1.00
H498   H     0.71050   0.90570   0.27390   0.01267  Uiso   1.00
H499   H     0.74360   0.93720   0.20780   0.01267  Uiso   1.00
H500   H     0.79700   0.96300   0.27020   0.01267  Uiso   1.00
H501   H     0.73730   0.03270   0.23110   0.01267  Uiso   1.00
H502   H     0.80460   0.06560   0.26830   0.01267  Uiso   1.00
H503   H     0.77590   0.04440   0.30190   0.01267  Uiso   1.00
H504   H     0.86900   0.96850   0.25330   0.01267  Uiso   1.00
H505   H     0.92500   0.94380   0.20830   0.01267  Uiso   1.00
H506   H     0.85040   0.96870   0.15930   0.01267  Uiso   1.00
H507   H     0.93990   0.02580   0.16730   0.01267  Uiso   1.00
H508   H     0.84180   0.05490   0.18980   0.01267  Uiso   1.00
H509   H     0.88760   0.12210   0.21740   0.01267  Uiso   1.00
H510   H     0.89380   0.12370   0.17550   0.01267  Uiso   1.00
H511   H     0.95590   0.05720   0.11930   0.01267  Uiso   1.00
H512   H     0.93860   0.06780   0.05770   0.01267  Uiso   1.00
H513   H     0.84000   0.04740   0.07690   0.01267  Uiso   1.00
H514   H     0.87760   0.13790   0.05020   0.01267  Uiso   1.00
H515   H     0.84390   0.11930   0.12110   0.01267  Uiso   1.00
H516   H     0.87520   0.19900   0.13300   0.01267  Uiso   1.00
H517   H     0.83400   0.20230   0.10300   0.01267  Uiso   1.00
H518   H     0.82640   0.17800   0.02420   0.01267  Uiso   1.00
H519   H     0.75340   0.16950   0.98930   0.01267  Uiso   1.00
H520   H     0.72410   0.09680   0.04180   0.01267  Uiso   1.00
H521   H     0.67520   0.18860   0.03140   0.01267  Uiso   1.00
H522   H     0.74150   0.17000   0.09000   0.01267  Uiso   1.00
H523   H     0.73450   0.25700   0.10060   0.01267  Uiso   1.00
H524   H     0.68170   0.23090   0.10370   0.01267  Uiso   1.00
H525   H     0.60430   0.18100   0.04740   0.01267  Uiso   1.00
H526   H     0.54130   0.12080   0.05340   0.01267  Uiso   1.00
H527   H     0.61540   0.06180   0.08700   0.01267  Uiso   1.00
H528   H     0.53020   0.10110   0.12060   0.01267  Uiso   1.00
H529   H     0.62950   0.13720   0.13130   0.01267  Uiso   1.00
H530   H     0.59550   0.19760   0.16710   0.01267  Uiso   1.00
H531   H     0.58550   0.14360   0.18230   0.01267  Uiso   1.00
H532   H     0.50890   0.05210   0.16090   0.01267  Uiso   1.00
H533   H     0.52020   0.96940   0.18340   0.01267  Uiso   1.00
H534   H     0.62240   0.97800   0.16510   0.01267  Uiso   1.00
H535   H     0.58990   0.97770   0.23760   0.01267  Uiso   1.00
H536   H     0.62000   0.06630   0.20130   0.01267  Uiso   1.00
H537   H     0.59580   0.10980   0.25100   0.01267  Uiso   1.00
H538   H     0.63430   0.06800   0.26290   0.01267  Uiso   1.00
H539   H     0.95250   0.53640   0.40520   0.01267  Uiso   1.00
H540   H     0.03290   0.53100   0.42960   0.01267  Uiso   1.00
H541   H     0.04090   0.63350   0.41090   0.01267  Uiso   1.00
H542   H     0.03970   0.60060   0.48290   0.01267  Uiso   1.00
H543   H     0.95700   0.64810   0.44820   0.01267  Uiso   1.00
H544   H     0.91170   0.62560   0.49940   0.01267  Uiso   1.00
H545   H     0.95640   0.66130   0.50950   0.01267  Uiso   1.00
H546   H     0.84550   0.66220   0.29420   0.01267  Uiso   1.00
H547   H     0.89480   0.59280   0.29760   0.01267  Uiso   1.00
H548   H     0.96600   0.64690   0.33640   0.01267  Uiso   1.00
H549   H     0.90530   0.56990   0.36690   0.01267  Uiso   1.00
H550   H     0.89360   0.67210   0.37910   0.01267  Uiso   1.00
H551   H     0.81800   0.64510   0.40740   0.01267  Uiso   1.00
H552   H     0.86690   0.63080   0.42850   0.01267  Uiso   1.00
H553   H     0.85850   0.88320   0.28330   0.01267  Uiso   1.00
H554   H     0.85580   0.81100   0.24750   0.01267  Uiso   1.00
H555   H     0.93550   0.77670   0.29130   0.01267  Uiso   1.00
H556   H     0.83850   0.73590   0.28760   0.01267  Uiso   1.00
H557   H     0.87480   0.79180   0.34540   0.01267  Uiso   1.00
H558   H     0.79030   0.78730   0.36420   0.01267  Uiso   1.00
H559   H     0.81390   0.73350   0.36180   0.01267  Uiso   1.00
H560   H     0.02150   0.98900   0.36610   0.01267  Uiso   1.00
H561   H     0.00600   0.97400   0.30420   0.01267  Uiso   1.00
H562   H     0.99900   0.87230   0.32110   0.01267  Uiso   1.00
H563   H     0.91570   0.92870   0.29950   0.01267  Uiso   1.00
H564   H     0.93220   0.89890   0.37180   0.01267  Uiso   1.00
H565   H     0.86780   0.95500   0.38510   0.01267  Uiso   1.00
H566   H     0.85030   0.90820   0.36290   0.01267  Uiso   1.00
H567   H     0.10370   0.87260   0.49300   0.01267  Uiso   1.00
H568   H     0.13160   0.92610   0.44720   0.01267  Uiso   1.00
H569   H     0.08320   0.85960   0.40030   0.01267  Uiso   1.00
H570   H     0.05820   0.96190   0.41110   0.01267  Uiso   1.00
H571   H     0.99790   0.88290   0.43920   0.01267  Uiso   1.00
H572   H     0.95500   0.94110   0.47000   0.01267  Uiso   1.00
H573   H     0.96090   0.96350   0.43110   0.01267  Uiso   1.00
H574   H     0.06630   0.65550   0.51470   0.01267  Uiso   1.00
H575   H     0.13290   0.71020   0.51520   0.01267  Uiso   1.00
H576   H     0.10200   0.74390   0.44690   0.01267  Uiso   1.00
H577   H     0.09180   0.80390   0.50910   0.01267  Uiso   1.00
H578   H     0.00980   0.75620   0.47560   0.01267  Uiso   1.00
H579   H     0.99310   0.83140   0.50900   0.01267  Uiso   1.00
H580   H     0.01010   0.80250   0.54370   0.01267  Uiso   1.00
H581   H     0.48310   0.79990   0.64470   0.01267  Uiso   1.00
H582   H     0.18730   0.43250   0.88590   0.01267  Uiso   1.00
H583   H     0.30500   0.12900   0.71270   0.01267  Uiso   1.00
H584   H     0.18780   0.10650   0.72290   0.01267  Uiso   1.00
H585   H     0.23840   0.87620   0.79490   0.01267  Uiso   1.00
H586   H     0.10780   0.12080   0.71890   0.01267  Uiso   1.00
H587   H     0.08450   0.04040   0.61900   0.01267  Uiso   1.00
H588   H     0.03760   0.89320   0.72600   0.01267  Uiso   1.00
H589   H     0.04720   0.00730   0.55710   0.01267  Uiso   1.00
H590   H     0.17010   0.92700   0.51610   0.01267  Uiso   1.00
H591   H     0.10050   0.74980   0.58910   0.01267  Uiso   1.00
H592   H     0.19440   0.88360   0.47010   0.01267  Uiso   1.00
H593   H     0.35040   0.89810   0.51030   0.01267  Uiso   1.00
H594   H     0.41910   0.88780   0.50520   0.01267  Uiso   1.00
H595   H     0.45320   0.98950   0.59770   0.01267  Uiso   1.00
H596   H     0.37590   0.09320   0.70200   0.01267  Uiso   1.00
H597   H     0.45700   0.92170   0.78370   0.01267  Uiso   1.00
H598   H     0.96220   0.48410   0.87310   0.01267  Uiso   1.00
H599   H     0.88650   0.37600   0.94720   0.01267  Uiso   1.00
H600   H     0.04940   0.40100   0.04790   0.01267  Uiso   1.00
H601   H     0.00080   0.43040   0.84360   0.01267  Uiso   1.00
H602   H     0.05450   0.14080   0.75360   0.01267  Uiso   1.00
H603   H     0.07560   0.29590   0.76000   0.01267  Uiso   1.00
H604   H     0.26150   0.22850   0.82570   0.01267  Uiso   1.00
H605   H     0.92090   0.07010   0.84010   0.01267  Uiso   1.00
H606   H     0.03130   0.12400   0.76160   0.01267  Uiso   1.00
H607   H     0.12540   0.00540   0.82680   0.01267  Uiso   1.00
H608   H     0.84260   0.16900   0.95160   0.01267  Uiso   1.00
H609   H     0.89940   0.07960   0.85930   0.01267  Uiso   1.00
H610   H     0.84240   0.35370   0.99080   0.01267  Uiso   1.00
H611   H     0.84250   0.19510   0.95820   0.01267  Uiso   1.00
H612   H     0.07270   0.19860   0.03820   0.01267  Uiso   1.00
H613   H     0.35630   0.03930   0.77060   0.01267  Uiso   1.00
H614   H     0.28950   0.09430   0.77390   0.01267  Uiso   1.00
H615   H     0.25640   0.06280   0.70780   0.01267  Uiso   1.00
H616   H     0.20300   0.03700   0.77020   0.01267  Uiso   1.00
H617   H     0.26270   0.96730   0.73110   0.01267  Uiso   1.00
H618   H     0.19540   0.93440   0.76830   0.01267  Uiso   1.00
H619   H     0.22410   0.95560   0.80190   0.01267  Uiso   1.00
H620   H     0.13100   0.03150   0.75330   0.01267  Uiso   1.00
H621   H     0.07500   0.05620   0.70830   0.01267  Uiso   1.00
H622   H     0.14960   0.03130   0.65930   0.01267  Uiso   1.00
H623   H     0.06010   0.97420   0.66730   0.01267  Uiso   1.00
H624   H     0.15820   0.94510   0.68980   0.01267  Uiso   1.00
H625   H     0.11240   0.87790   0.71740   0.01267  Uiso   1.00
H626   H     0.10620   0.87630   0.67550   0.01267  Uiso   1.00
H627   H     0.04410   0.94280   0.61930   0.01267  Uiso   1.00
H628   H     0.06140   0.93220   0.55770   0.01267  Uiso   1.00
H629   H     0.16000   0.95260   0.57690   0.01267  Uiso   1.00
H630   H     0.12240   0.86210   0.55020   0.01267  Uiso   1.00
H631   H     0.15610   0.88070   0.62110   0.01267  Uiso   1.00
H632   H     0.12480   0.80100   0.63300   0.01267  Uiso   1.00
H633   H     0.16600   0.79770   0.60300   0.01267  Uiso   1.00
H634   H     0.17360   0.82200   0.52420   0.01267  Uiso   1.00
H635   H     0.24660   0.83050   0.48930   0.01267  Uiso   1.00
H636   H     0.27590   0.90320   0.54180   0.01267  Uiso   1.00
H637   H     0.32480   0.81140   0.53140   0.01267  Uiso   1.00
H638   H     0.25850   0.83000   0.59000   0.01267  Uiso   1.00
H639   H     0.26550   0.74300   0.60060   0.01267  Uiso   1.00
H640   H     0.31830   0.76910   0.60370   0.01267  Uiso   1.00
H641   H     0.39570   0.81900   0.54740   0.01267  Uiso   1.00
H642   H     0.45870   0.87920   0.55340   0.01267  Uiso   1.00
H643   H     0.38460   0.93820   0.58700   0.01267  Uiso   1.00
H644   H     0.46980   0.89890   0.62060   0.01267  Uiso   1.00
H645   H     0.37050   0.86280   0.63130   0.01267  Uiso   1.00
H646   H     0.40450   0.80240   0.66710   0.01267  Uiso   1.00
H647   H     0.41450   0.85640   0.68230   0.01267  Uiso   1.00
H648   H     0.49110   0.94790   0.66090   0.01267  Uiso   1.00
H649   H     0.47980   0.03060   0.68340   0.01267  Uiso   1.00
H650   H     0.37760   0.02200   0.66510   0.01267  Uiso   1.00
H651   H     0.41010   0.02230   0.73760   0.01267  Uiso   1.00
H652   H     0.38000   0.93370   0.70130   0.01267  Uiso   1.00
H653   H     0.40420   0.89020   0.75100   0.01267  Uiso   1.00
H654   H     0.36570   0.93200   0.76290   0.01267  Uiso   1.00
H655   H     0.04750   0.46360   0.90520   0.01267  Uiso   1.00
H656   H     0.96710   0.46900   0.92960   0.01267  Uiso   1.00
H657   H     0.95910   0.36650   0.91090   0.01267  Uiso   1.00
H658   H     0.96030   0.39940   0.98290   0.01267  Uiso   1.00
H659   H     0.04300   0.35190   0.94820   0.01267  Uiso   1.00
H660   H     0.08830   0.37440   0.99940   0.01267  Uiso   1.00
H661   H     0.04360   0.33870   0.00950   0.01267  Uiso   1.00
H662   H     0.15450   0.33780   0.79420   0.01267  Uiso   1.00
H663   H     0.10520   0.40720   0.79760   0.01267  Uiso   1.00
H664   H     0.03400   0.35310   0.83640   0.01267  Uiso   1.00
H665   H     0.09470   0.43010   0.86690   0.01267  Uiso   1.00
H666   H     0.10640   0.32790   0.87910   0.01267  Uiso   1.00
H667   H     0.18200   0.35490   0.90740   0.01267  Uiso   1.00
H668   H     0.13310   0.36920   0.92850   0.01267  Uiso   1.00
H669   H     0.14150   0.11680   0.78330   0.01267  Uiso   1.00
H670   H     0.14420   0.18900   0.74750   0.01267  Uiso   1.00
H671   H     0.06450   0.22330   0.79130   0.01267  Uiso   1.00
H672   H     0.16150   0.26410   0.78760   0.01267  Uiso   1.00
H673   H     0.12520   0.20820   0.84540   0.01267  Uiso   1.00
H674   H     0.20970   0.21270   0.86420   0.01267  Uiso   1.00
H675   H     0.18610   0.26650   0.86180   0.01267  Uiso   1.00
H676   H     0.97850   0.01100   0.86610   0.01267  Uiso   1.00
H677   H     0.99400   0.02600   0.80420   0.01267  Uiso   1.00
H678   H     0.00100   0.12770   0.82110   0.01267  Uiso   1.00
H679   H     0.08430   0.07130   0.79950   0.01267  Uiso   1.00
H680   H     0.06780   0.10110   0.87180   0.01267  Uiso   1.00
H681   H     0.13220   0.04500   0.88510   0.01267  Uiso   1.00
H682   H     0.14970   0.09180   0.86290   0.01267  Uiso   1.00
H683   H     0.89630   0.12740   0.99300   0.01267  Uiso   1.00
H684   H     0.86840   0.07390   0.94720   0.01267  Uiso   1.00
H685   H     0.91680   0.14040   0.90030   0.01267  Uiso   1.00
H686   H     0.94180   0.03810   0.91110   0.01267  Uiso   1.00
H687   H     0.00210   0.11710   0.93920   0.01267  Uiso   1.00
H688   H     0.04500   0.05890   0.97000   0.01267  Uiso   1.00
H689   H     0.03910   0.03650   0.93110   0.01267  Uiso   1.00
H690   H     0.93370   0.34450   0.01470   0.01267  Uiso   1.00
H691   H     0.86710   0.28980   0.01520   0.01267  Uiso   1.00
H692   H     0.89800   0.25610   0.94690   0.01267  Uiso   1.00
H693   H     0.90820   0.19610   0.00910   0.01267  Uiso   1.00
H694   H     0.99020   0.24380   0.97560   0.01267  Uiso   1.00
H695   H     0.00690   0.16860   0.00900   0.01267  Uiso   1.00
H696   H     0.98990   0.19750   0.04370   0.01267  Uiso   1.00
H697   H     0.70010   0.98310   0.89470   0.01267  Uiso   1.00
H698   H     0.06750   0.68730   0.13590   0.01267  Uiso   1.00
H699   H     0.37100   0.80500   0.96270   0.01267  Uiso   1.00
H700   H     0.39350   0.68780   0.97290   0.01267  Uiso   1.00
H701   H     0.62380   0.73840   0.04490   0.01267  Uiso   1.00
H702   H     0.37920   0.60780   0.96890   0.01267  Uiso   1.00
H703   H     0.45960   0.58450   0.86900   0.01267  Uiso   1.00
H704   H     0.60680   0.53760   0.97600   0.01267  Uiso   1.00
H705   H     0.49270   0.54720   0.80710   0.01267  Uiso   1.00
H706   H     0.57300   0.67010   0.76610   0.01267  Uiso   1.00
H707   H     0.75020   0.60050   0.83910   0.01267  Uiso   1.00
H708   H     0.61640   0.69440   0.72010   0.01267  Uiso   1.00
H709   H     0.60190   0.85040   0.76030   0.01267  Uiso   1.00
H710   H     0.61220   0.91910   0.75520   0.01267  Uiso   1.00
H711   H     0.51050   0.95320   0.84770   0.01267  Uiso   1.00
H712   H     0.40680   0.87590   0.95200   0.01267  Uiso   1.00
H713   H     0.57830   0.95700   0.03370   0.01267  Uiso   1.00
H714   H     0.01590   0.46220   0.12310   0.01267  Uiso   1.00
H715   H     0.12400   0.38650   0.19720   0.01267  Uiso   1.00
H716   H     0.09900   0.54940   0.29790   0.01267  Uiso   1.00
H717   H     0.06960   0.50080   0.09360   0.01267  Uiso   1.00
H718   H     0.35920   0.55450   0.00360   0.01267  Uiso   1.00
H719   H     0.20410   0.57560   0.01000   0.01267  Uiso   1.00
H720   H     0.27150   0.76150   0.07570   0.01267  Uiso   1.00
H721   H     0.42990   0.42090   0.09010   0.01267  Uiso   1.00
H722   H     0.37600   0.53130   0.01160   0.01267  Uiso   1.00
H723   H     0.49460   0.62540   0.07680   0.01267  Uiso   1.00
H724   H     0.33100   0.34260   0.20160   0.01267  Uiso   1.00
H725   H     0.42040   0.39940   0.10930   0.01267  Uiso   1.00
H726   H     0.14630   0.34240   0.24080   0.01267  Uiso   1.00
H727   H     0.30490   0.34250   0.20820   0.01267  Uiso   1.00
H728   H     0.30140   0.57270   0.28820   0.01267  Uiso   1.00
H729   H     0.46070   0.85630   0.02060   0.01267  Uiso   1.00
H730   H     0.40570   0.78950   0.02390   0.01267  Uiso   1.00
H731   H     0.43720   0.75640   0.95780   0.01267  Uiso   1.00
H732   H     0.46300   0.70300   0.02020   0.01267  Uiso   1.00
H733   H     0.53270   0.76270   0.98110   0.01267  Uiso   1.00
H734   H     0.56560   0.69540   0.01830   0.01267  Uiso   1.00
H735   H     0.54440   0.72410   0.05190   0.01267  Uiso   1.00
H736   H     0.46850   0.63100   0.00330   0.01267  Uiso   1.00
H737   H     0.44380   0.57500   0.95830   0.01267  Uiso   1.00
H738   H     0.46870   0.64960   0.90930   0.01267  Uiso   1.00
H739   H     0.52580   0.56010   0.91730   0.01267  Uiso   1.00
H740   H     0.55490   0.65820   0.93980   0.01267  Uiso   1.00
H741   H     0.62210   0.61240   0.96740   0.01267  Uiso   1.00
H742   H     0.62370   0.60620   0.92550   0.01267  Uiso   1.00
H743   H     0.55720   0.54410   0.86930   0.01267  Uiso   1.00
H744   H     0.56780   0.56140   0.80770   0.01267  Uiso   1.00
H745   H     0.54740   0.66000   0.82690   0.01267  Uiso   1.00
H746   H     0.63790   0.62240   0.80020   0.01267  Uiso   1.00
H747   H     0.61930   0.65610   0.87110   0.01267  Uiso   1.00
H748   H     0.69900   0.62480   0.88300   0.01267  Uiso   1.00
H749   H     0.70230   0.66600   0.85300   0.01267  Uiso   1.00
H750   H     0.67800   0.67360   0.77420   0.01267  Uiso   1.00
H751   H     0.66950   0.74660   0.73930   0.01267  Uiso   1.00
H752   H     0.59680   0.77590   0.79180   0.01267  Uiso   1.00
H753   H     0.68860   0.82480   0.78140   0.01267  Uiso   1.00
H754   H     0.67000   0.75850   0.84000   0.01267  Uiso   1.00
H755   H     0.75700   0.76550   0.85060   0.01267  Uiso   1.00
H756   H     0.73090   0.81830   0.85370   0.01267  Uiso   1.00
H757   H     0.68100   0.89570   0.79740   0.01267  Uiso   1.00
H758   H     0.62080   0.95870   0.80340   0.01267  Uiso   1.00
H759   H     0.56180   0.88460   0.83700   0.01267  Uiso   1.00
H760   H     0.60110   0.96980   0.87060   0.01267  Uiso   1.00
H761   H     0.63720   0.87050   0.88130   0.01267  Uiso   1.00
H762   H     0.69760   0.90450   0.91710   0.01267  Uiso   1.00
H763   H     0.64360   0.91450   0.93230   0.01267  Uiso   1.00
H764   H     0.55210   0.99110   0.91090   0.01267  Uiso   1.00
H765   H     0.46940   0.97980   0.93340   0.01267  Uiso   1.00
H766   H     0.47800   0.87760   0.91510   0.01267  Uiso   1.00
H767   H     0.47770   0.91010   0.98760   0.01267  Uiso   1.00
H768   H     0.56630   0.88000   0.95130   0.01267  Uiso   1.00
H769   H     0.60980   0.90420   0.00100   0.01267  Uiso   1.00
H770   H     0.56800   0.86570   0.01290   0.01267  Uiso   1.00
H771   H     0.03640   0.54750   0.15520   0.01267  Uiso   1.00
H772   H     0.03100   0.46710   0.17960   0.01267  Uiso   1.00
H773   H     0.13350   0.45910   0.16090   0.01267  Uiso   1.00
H774   H     0.10060   0.46030   0.23290   0.01267  Uiso   1.00
H775   H     0.14810   0.54300   0.19820   0.01267  Uiso   1.00
H776   H     0.12560   0.58830   0.24940   0.01267  Uiso   1.00
H777   H     0.16130   0.54360   0.25950   0.01267  Uiso   1.00
H778   H     0.16220   0.65450   0.04420   0.01267  Uiso   1.00
H779   H     0.09280   0.60520   0.04760   0.01267  Uiso   1.00
H780   H     0.14690   0.53400   0.08640   0.01267  Uiso   1.00
H781   H     0.06990   0.59470   0.11690   0.01267  Uiso   1.00
H782   H     0.17210   0.60640   0.12910   0.01267  Uiso   1.00
H783   H     0.14510   0.68200   0.15740   0.01267  Uiso   1.00
H784   H     0.13080   0.63310   0.17850   0.01267  Uiso   1.00
H785   H     0.38320   0.64150   0.03330   0.01267  Uiso   1.00
H786   H     0.31100   0.64420   0.99750   0.01267  Uiso   1.00
H787   H     0.27670   0.56450   0.04130   0.01267  Uiso   1.00
H788   H     0.23590   0.66150   0.03760   0.01267  Uiso   1.00
H789   H     0.29180   0.62520   0.09540   0.01267  Uiso   1.00
H790   H     0.28730   0.70970   0.11420   0.01267  Uiso   1.00
H791   H     0.23350   0.68610   0.11180   0.01267  Uiso   1.00
H792   H     0.48900   0.47850   0.11610   0.01267  Uiso   1.00
H793   H     0.47400   0.49400   0.05420   0.01267  Uiso   1.00
H794   H     0.37230   0.50100   0.07110   0.01267  Uiso   1.00
H795   H     0.42870   0.58430   0.04950   0.01267  Uiso   1.00
H796   H     0.39890   0.56780   0.12180   0.01267  Uiso   1.00
H797   H     0.45500   0.63220   0.13510   0.01267  Uiso   1.00
H798   H     0.40820   0.64970   0.11290   0.01267  Uiso   1.00
H799   H     0.37260   0.39630   0.24300   0.01267  Uiso   1.00
H800   H     0.42610   0.36840   0.19720   0.01267  Uiso   1.00
H801   H     0.35960   0.41680   0.15030   0.01267  Uiso   1.00
H802   H     0.46190   0.44180   0.16110   0.01267  Uiso   1.00
H803   H     0.38290   0.50210   0.18920   0.01267  Uiso   1.00
H804   H     0.44110   0.54500   0.22000   0.01267  Uiso   1.00
H805   H     0.46350   0.53910   0.18110   0.01267  Uiso   1.00
H806   H     0.15550   0.43370   0.26470   0.01267  Uiso   1.00
H807   H     0.21020   0.36710   0.26520   0.01267  Uiso   1.00
H808   H     0.24390   0.39800   0.19690   0.01267  Uiso   1.00
H809   H     0.30390   0.40820   0.25910   0.01267  Uiso   1.00
H810   H     0.25620   0.49020   0.22560   0.01267  Uiso   1.00
H811   H     0.33140   0.50690   0.25900   0.01267  Uiso   1.00
H812   H     0.30250   0.48990   0.29370   0.01267  Uiso   1.00
H813   H     0.29990   0.01690   0.39470   0.01267  Uiso   1.00
H814   H     0.93250   0.31270   0.63590   0.01267  Uiso   1.00
H815   H     0.62900   0.19500   0.46270   0.01267  Uiso   1.00
H816   H     0.60650   0.31220   0.47290   0.01267  Uiso   1.00
H817   H     0.37620   0.26160   0.54490   0.01267  Uiso   1.00
H818   H     0.62080   0.39220   0.46890   0.01267  Uiso   1.00
H819   H     0.54040   0.41550   0.36900   0.01267  Uiso   1.00
H820   H     0.39320   0.46240   0.47600   0.01267  Uiso   1.00
H821   H     0.50730   0.45280   0.30710   0.01267  Uiso   1.00
H822   H     0.42700   0.32990   0.26610   0.01267  Uiso   1.00
H823   H     0.24980   0.39950   0.33910   0.01267  Uiso   1.00
H824   H     0.38360   0.30560   0.22010   0.01267  Uiso   1.00
H825   H     0.39810   0.14960   0.26030   0.01267  Uiso   1.00
H826   H     0.38780   0.08090   0.25520   0.01267  Uiso   1.00
H827   H     0.48950   0.04680   0.34770   0.01267  Uiso   1.00
H828   H     0.59320   0.12410   0.45200   0.01267  Uiso   1.00
H829   H     0.42170   0.04300   0.53370   0.01267  Uiso   1.00
H830   H     0.98410   0.53780   0.62310   0.01267  Uiso   1.00
H831   H     0.87600   0.61350   0.69720   0.01267  Uiso   1.00
H832   H     0.90100   0.45060   0.79790   0.01267  Uiso   1.00
H833   H     0.93040   0.49920   0.59360   0.01267  Uiso   1.00
H834   H     0.64080   0.44550   0.50360   0.01267  Uiso   1.00
H835   H     0.79590   0.42440   0.51000   0.01267  Uiso   1.00
H836   H     0.72850   0.23850   0.57570   0.01267  Uiso   1.00
H837   H     0.57010   0.57910   0.59010   0.01267  Uiso   1.00
H838   H     0.62400   0.46870   0.51160   0.01267  Uiso   1.00
H839   H     0.50540   0.37460   0.57680   0.01267  Uiso   1.00
H840   H     0.66900   0.65740   0.70160   0.01267  Uiso   1.00
H841   H     0.57960   0.60060   0.60930   0.01267  Uiso   1.00
H842   H     0.85370   0.65760   0.74080   0.01267  Uiso   1.00
H843   H     0.69510   0.65750   0.70820   0.01267  Uiso   1.00
H844   H     0.69860   0.42730   0.78820   0.01267  Uiso   1.00
H845   H     0.53930   0.14370   0.52060   0.01267  Uiso   1.00
H846   H     0.59430   0.21050   0.52390   0.01267  Uiso   1.00
H847   H     0.56280   0.24360   0.45780   0.01267  Uiso   1.00
H848   H     0.53700   0.29700   0.52020   0.01267  Uiso   1.00
H849   H     0.46730   0.23730   0.48110   0.01267  Uiso   1.00
H850   H     0.43440   0.30460   0.51830   0.01267  Uiso   1.00
H851   H     0.45560   0.27590   0.55190   0.01267  Uiso   1.00
H852   H     0.53150   0.36900   0.50330   0.01267  Uiso   1.00
H853   H     0.55620   0.42500   0.45830   0.01267  Uiso   1.00
H854   H     0.53130   0.35040   0.40930   0.01267  Uiso   1.00
H855   H     0.47420   0.43990   0.41730   0.01267  Uiso   1.00
H856   H     0.44510   0.34180   0.43980   0.01267  Uiso   1.00
H857   H     0.37790   0.38760   0.46740   0.01267  Uiso   1.00
H858   H     0.37630   0.39380   0.42550   0.01267  Uiso   1.00
H859   H     0.44280   0.45590   0.36930   0.01267  Uiso   1.00
H860   H     0.43220   0.43860   0.30770   0.01267  Uiso   1.00
H861   H     0.45260   0.34000   0.32690   0.01267  Uiso   1.00
H862   H     0.36210   0.37760   0.30020   0.01267  Uiso   1.00
H863   H     0.38070   0.34390   0.37110   0.01267  Uiso   1.00
H864   H     0.30100   0.37520   0.38300   0.01267  Uiso   1.00
H865   H     0.29770   0.33400   0.35300   0.01267  Uiso   1.00
H866   H     0.32200   0.32640   0.27420   0.01267  Uiso   1.00
H867   H     0.33050   0.25340   0.23930   0.01267  Uiso   1.00
H868   H     0.40320   0.22410   0.29180   0.01267  Uiso   1.00
H869   H     0.31140   0.17520   0.28140   0.01267  Uiso   1.00
H870   H     0.33000   0.24150   0.34000   0.01267  Uiso   1.00
H871   H     0.24300   0.23450   0.35060   0.01267  Uiso   1.00
H872   H     0.26910   0.18170   0.35370   0.01267  Uiso   1.00
H873   H     0.31900   0.10430   0.29740   0.01267  Uiso   1.00
H874   H     0.37920   0.04130   0.30340   0.01267  Uiso   1.00
H875   H     0.43820   0.11540   0.33700   0.01267  Uiso   1.00
H876   H     0.39890   0.03020   0.37060   0.01267  Uiso   1.00
H877   H     0.36280   0.12950   0.38130   0.01267  Uiso   1.00
H878   H     0.30240   0.09550   0.41710   0.01267  Uiso   1.00
H879   H     0.35640   0.08550   0.43230   0.01267  Uiso   1.00
H880   H     0.44790   0.00890   0.41090   0.01267  Uiso   1.00
H881   H     0.53060   0.02020   0.43340   0.01267  Uiso   1.00
H882   H     0.52200   0.12240   0.41510   0.01267  Uiso   1.00
H883   H     0.52230   0.08990   0.48760   0.01267  Uiso   1.00
H884   H     0.43370   0.12000   0.45130   0.01267  Uiso   1.00
H885   H     0.39020   0.09580   0.50100   0.01267  Uiso   1.00
H886   H     0.43200   0.13430   0.51290   0.01267  Uiso   1.00
H887   H     0.96360   0.45250   0.65520   0.01267  Uiso   1.00
H888   H     0.96900   0.53290   0.67960   0.01267  Uiso   1.00
H889   H     0.86650   0.54090   0.66090   0.01267  Uiso   1.00
H890   H     0.89940   0.53970   0.73290   0.01267  Uiso   1.00
H891   H     0.85190   0.45700   0.69820   0.01267  Uiso   1.00
H892   H     0.87440   0.41170   0.74940   0.01267  Uiso   1.00
H893   H     0.83870   0.45640   0.75950   0.01267  Uiso   1.00
H894   H     0.83780   0.34550   0.54420   0.01267  Uiso   1.00
H895   H     0.90720   0.39480   0.54760   0.01267  Uiso   1.00
H896   H     0.85310   0.46600   0.58640   0.01267  Uiso   1.00
H897   H     0.93010   0.40530   0.61690   0.01267  Uiso   1.00
H898   H     0.82790   0.39360   0.62910   0.01267  Uiso   1.00
H899   H     0.85490   0.31800   0.65740   0.01267  Uiso   1.00
H900   H     0.86920   0.36690   0.67850   0.01267  Uiso   1.00
H901   H     0.61680   0.35850   0.53330   0.01267  Uiso   1.00
H902   H     0.68900   0.35580   0.49750   0.01267  Uiso   1.00
H903   H     0.72330   0.43550   0.54130   0.01267  Uiso   1.00
H904   H     0.76410   0.33850   0.53760   0.01267  Uiso   1.00
H905   H     0.70820   0.37480   0.59540   0.01267  Uiso   1.00
H906   H     0.71270   0.29030   0.61420   0.01267  Uiso   1.00
H907   H     0.76650   0.31390   0.61180   0.01267  Uiso   1.00
H908   H     0.51100   0.52150   0.61610   0.01267  Uiso   1.00
H909   H     0.52600   0.50600   0.55420   0.01267  Uiso   1.00
H910   H     0.62770   0.49900   0.57110   0.01267  Uiso   1.00
H911   H     0.57130   0.41570   0.54950   0.01267  Uiso   1.00
H912   H     0.60110   0.43220   0.62180   0.01267  Uiso   1.00
H913   H     0.54500   0.36780   0.63510   0.01267  Uiso   1.00
H914   H     0.59180   0.35030   0.61290   0.01267  Uiso   1.00
H915   H     0.62740   0.60370   0.74300   0.01267  Uiso   1.00
H916   H     0.57390   0.63160   0.69720   0.01267  Uiso   1.00
H917   H     0.64040   0.58320   0.65030   0.01267  Uiso   1.00
H918   H     0.53810   0.55820   0.66110   0.01267  Uiso   1.00
H919   H     0.61710   0.49790   0.68920   0.01267  Uiso   1.00
H920   H     0.55890   0.45500   0.72000   0.01267  Uiso   1.00
H921   H     0.53650   0.46090   0.68110   0.01267  Uiso   1.00
H922   H     0.84450   0.56630   0.76470   0.01267  Uiso   1.00
H923   H     0.78980   0.63290   0.76520   0.01267  Uiso   1.00
H924   H     0.75610   0.60200   0.69690   0.01267  Uiso   1.00
H925   H     0.69610   0.59180   0.75910   0.01267  Uiso   1.00
H926   H     0.74380   0.50980   0.72560   0.01267  Uiso   1.00
H927   H     0.66860   0.49310   0.75900   0.01267  Uiso   1.00
H928   H     0.69750   0.51010   0.79370   0.01267  Uiso   1.00
C1     C     0.82626   0.46794   0.99371   0.01267  Uiso   1.00
C2     C     0.79684   0.41987   0.99987   0.01267  Uiso   1.00
C3     C     0.74932   0.42952   0.01692   0.01267  Uiso   1.00
C4     C     0.71993   0.47281   0.00211   0.01267  Uiso   1.00
C5     C     0.75281   0.51794   0.99575   0.01267  Uiso   1.00
C6     C     0.72850   0.55780   0.97216   0.01267  Uiso   1.00
C7     C     0.63491   0.48220   0.02103   0.01267  Uiso   1.00
C8     C     0.61069   0.44611   0.04784   0.01267  Uiso   1.00
C9     C     0.61420   0.46920   0.08360   0.01267  Uiso   1.00
C10    C     0.59669   0.52367   0.08509   0.01267  Uiso   1.00
C11    C     0.62195   0.55238   0.05590   0.01267  Uiso   1.00
C12    C     0.59790   0.60470   0.05304   0.01267  Uiso   1.00
C13    C     0.57785   0.56723   0.13850   0.01267  Uiso   1.00
C14    C     0.58590   0.55060   0.17695   0.01267  Uiso   1.00
C15    C     0.63576   0.56535   0.18823   0.01267  Uiso   1.00
C16    C     0.64384   0.61916   0.18310   0.01267  Uiso   1.00
C17    C     0.63169   0.63425   0.14549   0.01267  Uiso   1.00
C18    C     0.63240   0.69020   0.14178   0.01267  Uiso   1.00
C19    C     0.70485   0.66630   0.21463   0.01267  Uiso   1.00
C20    C     0.73752   0.64370   0.24306   0.01267  Uiso   1.00
C21    C     0.78510   0.62470   0.22412   0.01267  Uiso   1.00
C22    C     0.80810   0.66460   0.20258   0.01267  Uiso   1.00
C23    C     0.76996   0.69236   0.17923   0.01267  Uiso   1.00
C24    C     0.79140   0.73950   0.16280   0.01267  Uiso   1.00
C25    C     0.89287   0.65586   0.18344   0.01267  Uiso   1.00
C26    C     0.92350   0.61073   0.19400   0.01267  Uiso   1.00
C27    C     0.91945   0.57361   0.16439   0.01267  Uiso   1.00
C28    C     0.93340   0.59530   0.12972   0.01267  Uiso   1.00
C29    C     0.90628   0.64493   0.12109   0.01267  Uiso   1.00
C30    C     0.92260   0.66660   0.08710   0.01267  Uiso   1.00
C31    C     0.95787   0.54160   0.08054   0.01267  Uiso   1.00
C32    C     0.95382   0.48350   0.08232   0.01267  Uiso   1.00
C33    C     0.90348   0.46868   0.06736   0.01267  Uiso   1.00
C34    C     0.89121   0.49400   0.03179   0.01267  Uiso   1.00
C35    C     0.90380   0.54982   0.03233   0.01267  Uiso   1.00
C36    C     0.89900   0.57390   0.99701   0.01267  Uiso   1.00
C37    C     0.53116   0.06636   0.83492   0.01267  Uiso   1.00
C38    C     0.47668   0.05956   0.83559   0.01267  Uiso   1.00
C39    C     0.45355   0.10636   0.82172   0.01267  Uiso   1.00
C40    C     0.47384   0.12171   0.78638   0.01267  Uiso   1.00
C41    C     0.53049   0.12136   0.78605   0.01267  Uiso   1.00
C42    C     0.55194   0.12799   0.74923   0.01267  Uiso   1.00
C43    C     0.63002   0.16012   0.93607   0.01267  Uiso   1.00
C44    C     0.58964   0.12507   0.94634   0.01267  Uiso   1.00
C45    C     0.55380   0.11630   0.91716   0.01267  Uiso   1.00
C46    C     0.58140   0.10422   0.88224   0.01267  Uiso   1.00
C47    C     0.62090   0.13887   0.87523   0.01267  Uiso   1.00
C48    C     0.65210   0.12420   0.84324   0.01267  Uiso   1.00
C49    C     0.62931   0.35100   0.95738   0.01267  Uiso   1.00
C50    C     0.61410   0.31827   0.98819   0.01267  Uiso   1.00
C51    C     0.59457   0.26916   0.97296   0.01267  Uiso   1.00
C52    C     0.63321   0.24843   0.94815   0.01267  Uiso   1.00
C53    C     0.65180   0.28370   0.92185   0.01267  Uiso   1.00
C54    C     0.69670   0.26230   0.90230   0.01267  Uiso   1.00
C55    C     0.49722   0.45894   0.89109   0.01267  Uiso   1.00
C56    C     0.48460   0.44550   0.93053   0.01267  Uiso   1.00
C57    C     0.51410   0.40170   0.94173   0.01267  Uiso   1.00
C58    C     0.56823   0.40601   0.93321   0.01267  Uiso   1.00
C59    C     0.57737   0.42549   0.89509   0.01267  Uiso   1.00
C60    C     0.62988   0.43870   0.88816   0.01267  Uiso   1.00
C61    C     0.41473   0.37422   0.77981   0.01267  Uiso   1.00
C62    C     0.37847   0.39160   0.80878   0.01267  Uiso   1.00
C63    C     0.40600   0.39360   0.84338   0.01267  Uiso   1.00
C64    C     0.45210   0.42652   0.83973   0.01267  Uiso   1.00
C65    C     0.48377   0.41416   0.80621   0.01267  Uiso   1.00
C66    C     0.52090   0.45410   0.79728   0.01267  Uiso   1.00
C67    C     0.43609   0.18576   0.75024   0.01267  Uiso   1.00
C68    C     0.38381   0.20345   0.75783   0.01267  Uiso   1.00
C69    C     0.38639   0.25184   0.77874   0.01267  Uiso   1.00
C70    C     0.42326   0.28901   0.76244   0.01267  Uiso   1.00
C71    C     0.47215   0.26535   0.75242   0.01267  Uiso   1.00
C72    C     0.50490   0.29850   0.72997   0.01267  Uiso   1.00
C73    C     0.17374   0.53206   0.49371   0.01267  Uiso   1.00
C74    C     0.20316   0.58013   0.49987   0.01267  Uiso   1.00
C75    C     0.25068   0.57048   0.51692   0.01267  Uiso   1.00
C76    C     0.28007   0.52719   0.50211   0.01267  Uiso   1.00
C77    C     0.24719   0.48206   0.49575   0.01267  Uiso   1.00
C78    C     0.27150   0.44220   0.47216   0.01267  Uiso   1.00
C79    C     0.36509   0.51780   0.52103   0.01267  Uiso   1.00
C80    C     0.38931   0.55389   0.54784   0.01267  Uiso   1.00
C81    C     0.38580   0.53080   0.58360   0.01267  Uiso   1.00
C82    C     0.40331   0.47633   0.58509   0.01267  Uiso   1.00
C83    C     0.37805   0.44762   0.55590   0.01267  Uiso   1.00
C84    C     0.40210   0.39530   0.55304   0.01267  Uiso   1.00
C85    C     0.42215   0.43277   0.63850   0.01267  Uiso   1.00
C86    C     0.41410   0.44940   0.67695   0.01267  Uiso   1.00
C87    C     0.36424   0.43465   0.68823   0.01267  Uiso   1.00
C88    C     0.35616   0.38084   0.68310   0.01267  Uiso   1.00
C89    C     0.36831   0.36575   0.64549   0.01267  Uiso   1.00
C90    C     0.36760   0.30980   0.64178   0.01267  Uiso   1.00
C91    C     0.29515   0.33370   0.71463   0.01267  Uiso   1.00
C92    C     0.26248   0.35630   0.74306   0.01267  Uiso   1.00
C93    C     0.21490   0.37530   0.72412   0.01267  Uiso   1.00
C94    C     0.19190   0.33540   0.70258   0.01267  Uiso   1.00
C95    C     0.23004   0.30764   0.67923   0.01267  Uiso   1.00
C96    C     0.20860   0.26050   0.66280   0.01267  Uiso   1.00
C97    C     0.10713   0.34414   0.68344   0.01267  Uiso   1.00
C98    C     0.07650   0.38927   0.69400   0.01267  Uiso   1.00
C99    C     0.08055   0.42639   0.66439   0.01267  Uiso   1.00
C100   C     0.06660   0.40470   0.62972   0.01267  Uiso   1.00
C101   C     0.09372   0.35507   0.62109   0.01267  Uiso   1.00
C102   C     0.07740   0.33340   0.58710   0.01267  Uiso   1.00
C103   C     0.04213   0.45840   0.58054   0.01267  Uiso   1.00
C104   C     0.04618   0.51650   0.58232   0.01267  Uiso   1.00
C105   C     0.09652   0.53132   0.56736   0.01267  Uiso   1.00
C106   C     0.10879   0.50600   0.53179   0.01267  Uiso   1.00
C107   C     0.09620   0.45018   0.53233   0.01267  Uiso   1.00
C108   C     0.10100   0.42610   0.49701   0.01267  Uiso   1.00
C109   C     0.46884   0.93364   0.33492   0.01267  Uiso   1.00
C110   C     0.52332   0.94044   0.33559   0.01267  Uiso   1.00
C111   C     0.54645   0.89364   0.32172   0.01267  Uiso   1.00
C112   C     0.52616   0.87829   0.28638   0.01267  Uiso   1.00
C113   C     0.46951   0.87864   0.28605   0.01267  Uiso   1.00
C114   C     0.44806   0.87201   0.24923   0.01267  Uiso   1.00
C115   C     0.36998   0.83988   0.43607   0.01267  Uiso   1.00
C116   C     0.41036   0.87493   0.44634   0.01267  Uiso   1.00
C117   C     0.44620   0.88370   0.41716   0.01267  Uiso   1.00
C118   C     0.41860   0.89578   0.38224   0.01267  Uiso   1.00
C119   C     0.37910   0.86113   0.37523   0.01267  Uiso   1.00
C120   C     0.34790   0.87580   0.34324   0.01267  Uiso   1.00
C121   C     0.37069   0.64900   0.45738   0.01267  Uiso   1.00
C122   C     0.38590   0.68173   0.48819   0.01267  Uiso   1.00
C123   C     0.40543   0.73084   0.47296   0.01267  Uiso   1.00
C124   C     0.36679   0.75157   0.44815   0.01267  Uiso   1.00
C125   C     0.34820   0.71630   0.42185   0.01267  Uiso   1.00
C126   C     0.30330   0.73770   0.40230   0.01267  Uiso   1.00
C127   C     0.50278   0.54106   0.39109   0.01267  Uiso   1.00
C128   C     0.51540   0.55450   0.43053   0.01267  Uiso   1.00
C129   C     0.48590   0.59830   0.44173   0.01267  Uiso   1.00
C130   C     0.43177   0.59399   0.43321   0.01267  Uiso   1.00
C131   C     0.42263   0.57451   0.39509   0.01267  Uiso   1.00
C132   C     0.37012   0.56130   0.38816   0.01267  Uiso   1.00
C133   C     0.58527   0.62578   0.27981   0.01267  Uiso   1.00
C134   C     0.62153   0.60840   0.30878   0.01267  Uiso   1.00
C135   C     0.59400   0.60640   0.34338   0.01267  Uiso   1.00
C136   C     0.54790   0.57348   0.33973   0.01267  Uiso   1.00
C137   C     0.51623   0.58584   0.30621   0.01267  Uiso   1.00
C138   C     0.47910   0.54590   0.29728   0.01267  Uiso   1.00
C139   C     0.56391   0.81424   0.25024   0.01267  Uiso   1.00
C140   C     0.61619   0.79655   0.25783   0.01267  Uiso   1.00
C141   C     0.61361   0.74816   0.27874   0.01267  Uiso   1.00
C142   C     0.57674   0.71099   0.26244   0.01267  Uiso   1.00
C143   C     0.52785   0.73465   0.25242   0.01267  Uiso   1.00
C144   C     0.49510   0.70150   0.22997   0.01267  Uiso   1.00
C145   C     0.03206   0.32626   0.24371   0.01267  Uiso   1.00
C146   C     0.08013   0.29684   0.24987   0.01267  Uiso   1.00
C147   C     0.07048   0.24932   0.26692   0.01267  Uiso   1.00
C148   C     0.02719   0.21993   0.25211   0.01267  Uiso   1.00
C149   C     0.98206   0.25281   0.24575   0.01267  Uiso   1.00
C150   C     0.94220   0.22850   0.22216   0.01267  Uiso   1.00
C151   C     0.01780   0.13491   0.27103   0.01267  Uiso   1.00
C152   C     0.05389   0.11069   0.29784   0.01267  Uiso   1.00
C153   C     0.03080   0.11420   0.33360   0.01267  Uiso   1.00
C154   C     0.97633   0.09669   0.33509   0.01267  Uiso   1.00
C155   C     0.94762   0.12195   0.30590   0.01267  Uiso   1.00
C156   C     0.89530   0.09790   0.30304   0.01267  Uiso   1.00
C157   C     0.93277   0.07785   0.38850   0.01267  Uiso   1.00
C158   C     0.94940   0.08590   0.42695   0.01267  Uiso   1.00
C159   C     0.93465   0.13576   0.43823   0.01267  Uiso   1.00
C160   C     0.88084   0.14384   0.43310   0.01267  Uiso   1.00
C161   C     0.86575   0.13169   0.39549   0.01267  Uiso   1.00
C162   C     0.80980   0.13240   0.39178   0.01267  Uiso   1.00
C163   C     0.83370   0.20485   0.46463   0.01267  Uiso   1.00
C164   C     0.85630   0.23752   0.49306   0.01267  Uiso   1.00
C165   C     0.87530   0.28510   0.47412   0.01267  Uiso   1.00
C166   C     0.83540   0.30810   0.45258   0.01267  Uiso   1.00
C167   C     0.80764   0.26996   0.42923   0.01267  Uiso   1.00
C168   C     0.76050   0.29140   0.41280   0.01267  Uiso   1.00
C169   C     0.84414   0.39287   0.43344   0.01267  Uiso   1.00
C170   C     0.88927   0.42350   0.44400   0.01267  Uiso   1.00
C171   C     0.92639   0.41945   0.41439   0.01267  Uiso   1.00
C172   C     0.90470   0.43340   0.37972   0.01267  Uiso   1.00
C173   C     0.85507   0.40628   0.37109   0.01267  Uiso   1.00
C174   C     0.83340   0.42260   0.33710   0.01267  Uiso   1.00
C175   C     0.95840   0.45787   0.33054   0.01267  Uiso   1.00
C176   C     0.01650   0.45382   0.33232   0.01267  Uiso   1.00
C177   C     0.03132   0.40348   0.31736   0.01267  Uiso   1.00
C178   C     0.00600   0.39121   0.28179   0.01267  Uiso   1.00
C179   C     0.95018   0.40380   0.28233   0.01267  Uiso   1.00
C180   C     0.92610   0.39900   0.24701   0.01267  Uiso   1.00
C181   C     0.43364   0.03116   0.08492   0.01267  Uiso   1.00
C182   C     0.44044   0.97668   0.08559   0.01267  Uiso   1.00
C183   C     0.39364   0.95355   0.07172   0.01267  Uiso   1.00
C184   C     0.37829   0.97384   0.03638   0.01267  Uiso   1.00
C185   C     0.37864   0.03049   0.03605   0.01267  Uiso   1.00
C186   C     0.37201   0.05194   0.99923   0.01267  Uiso   1.00
C187   C     0.33988   0.13002   0.18607   0.01267  Uiso   1.00
C188   C     0.37493   0.08964   0.19634   0.01267  Uiso   1.00
C189   C     0.38370   0.05380   0.16716   0.01267  Uiso   1.00
C190   C     0.39578   0.08140   0.13224   0.01267  Uiso   1.00
C191   C     0.36113   0.12090   0.12523   0.01267  Uiso   1.00
C192   C     0.37580   0.15210   0.09324   0.01267  Uiso   1.00
C193   C     0.14900   0.12931   0.20738   0.01267  Uiso   1.00
C194   C     0.18173   0.11410   0.23819   0.01267  Uiso   1.00
C195   C     0.23084   0.09457   0.22296   0.01267  Uiso   1.00
C196   C     0.25157   0.13321   0.19815   0.01267  Uiso   1.00
C197   C     0.21630   0.15180   0.17185   0.01267  Uiso   1.00
C198   C     0.23770   0.19670   0.15230   0.01267  Uiso   1.00
C199   C     0.04106   0.99722   0.14109   0.01267  Uiso   1.00
C200   C     0.05450   0.98460   0.18053   0.01267  Uiso   1.00
C201   C     0.09830   0.01410   0.19173   0.01267  Uiso   1.00
C202   C     0.09399   0.06823   0.18321   0.01267  Uiso   1.00
C203   C     0.07451   0.07737   0.14509   0.01267  Uiso   1.00
C204   C     0.06130   0.12988   0.13816   0.01267  Uiso   1.00
C205   C     0.12578   0.91473   0.02981   0.01267  Uiso   1.00
C206   C     0.10840   0.87847   0.05878   0.01267  Uiso   1.00
C207   C     0.10640   0.90600   0.09338   0.01267  Uiso   1.00
C208   C     0.07348   0.95210   0.08973   0.01267  Uiso   1.00
C209   C     0.08584   0.98377   0.05621   0.01267  Uiso   1.00
C210   C     0.04590   0.02090   0.04728   0.01267  Uiso   1.00
C211   C     0.31424   0.93609   0.00024   0.01267  Uiso   1.00
C212   C     0.29655   0.88381   0.00783   0.01267  Uiso   1.00
C213   C     0.24816   0.88639   0.02874   0.01267  Uiso   1.00
C214   C     0.21099   0.92326   0.01244   0.01267  Uiso   1.00
C215   C     0.23465   0.97215   0.00242   0.01267  Uiso   1.00
C216   C     0.20150   0.00490   0.97997   0.01267  Uiso   1.00
C217   C     0.96794   0.67374   0.74371   0.01267  Uiso   1.00
C218   C     0.91987   0.70316   0.74987   0.01267  Uiso   1.00
C219   C     0.92952   0.75068   0.76692   0.01267  Uiso   1.00
C220   C     0.97281   0.78007   0.75211   0.01267  Uiso   1.00
C221   C     0.01794   0.74719   0.74575   0.01267  Uiso   1.00
C222   C     0.05780   0.77150   0.72216   0.01267  Uiso   1.00
C223   C     0.98220   0.86509   0.77103   0.01267  Uiso   1.00
C224   C     0.94611   0.88931   0.79784   0.01267  Uiso   1.00
C225   C     0.96920   0.88580   0.83360   0.01267  Uiso   1.00
C226   C     0.02367   0.90331   0.83509   0.01267  Uiso   1.00
C227   C     0.05238   0.87805   0.80590   0.01267  Uiso   1.00
C228   C     0.10470   0.90210   0.80304   0.01267  Uiso   1.00
C229   C     0.06723   0.92215   0.88850   0.01267  Uiso   1.00
C230   C     0.05060   0.91410   0.92695   0.01267  Uiso   1.00
C231   C     0.06535   0.86424   0.93823   0.01267  Uiso   1.00
C232   C     0.11916   0.85616   0.93310   0.01267  Uiso   1.00
C233   C     0.13425   0.86831   0.89549   0.01267  Uiso   1.00
C234   C     0.19020   0.86760   0.89178   0.01267  Uiso   1.00
C235   C     0.16630   0.79515   0.96463   0.01267  Uiso   1.00
C236   C     0.14370   0.76248   0.99306   0.01267  Uiso   1.00
C237   C     0.12470   0.71490   0.97412   0.01267  Uiso   1.00
C238   C     0.16460   0.69190   0.95258   0.01267  Uiso   1.00
C239   C     0.19236   0.73004   0.92923   0.01267  Uiso   1.00
C240   C     0.23950   0.70860   0.91280   0.01267  Uiso   1.00
C241   C     0.15586   0.60713   0.93344   0.01267  Uiso   1.00
C242   C     0.11073   0.57650   0.94400   0.01267  Uiso   1.00
C243   C     0.07361   0.58055   0.91439   0.01267  Uiso   1.00
C244   C     0.09530   0.56660   0.87972   0.01267  Uiso   1.00
C245   C     0.14493   0.59372   0.87109   0.01267  Uiso   1.00
C246   C     0.16660   0.57740   0.83710   0.01267  Uiso   1.00
C247   C     0.04160   0.54213   0.83054   0.01267  Uiso   1.00
C248   C     0.98350   0.54618   0.83232   0.01267  Uiso   1.00
C249   C     0.96868   0.59652   0.81736   0.01267  Uiso   1.00
C250   C     0.99400   0.60879   0.78179   0.01267  Uiso   1.00
C251   C     0.04982   0.59620   0.78233   0.01267  Uiso   1.00
C252   C     0.07390   0.60100   0.74701   0.01267  Uiso   1.00
C253   C     0.56636   0.96884   0.58492   0.01267  Uiso   1.00
C254   C     0.55956   0.02332   0.58559   0.01267  Uiso   1.00
C255   C     0.60636   0.04645   0.57172   0.01267  Uiso   1.00
C256   C     0.62171   0.02616   0.53638   0.01267  Uiso   1.00
C257   C     0.62136   0.96951   0.53605   0.01267  Uiso   1.00
C258   C     0.62799   0.94806   0.49923   0.01267  Uiso   1.00
C259   C     0.66012   0.86998   0.68607   0.01267  Uiso   1.00
C260   C     0.62507   0.91036   0.69634   0.01267  Uiso   1.00
C261   C     0.61630   0.94620   0.66716   0.01267  Uiso   1.00
C262   C     0.60422   0.91860   0.63224   0.01267  Uiso   1.00
C263   C     0.63887   0.87910   0.62523   0.01267  Uiso   1.00
C264   C     0.62420   0.84790   0.59324   0.01267  Uiso   1.00
C265   C     0.85100   0.87069   0.70738   0.01267  Uiso   1.00
C266   C     0.81827   0.88590   0.73819   0.01267  Uiso   1.00
C267   C     0.76916   0.90543   0.72296   0.01267  Uiso   1.00
C268   C     0.74843   0.86679   0.69815   0.01267  Uiso   1.00
C269   C     0.78370   0.84820   0.67185   0.01267  Uiso   1.00
C270   C     0.76230   0.80330   0.65230   0.01267  Uiso   1.00
C271   C     0.95894   0.00278   0.64109   0.01267  Uiso   1.00
C272   C     0.94550   0.01540   0.68053   0.01267  Uiso   1.00
C273   C     0.90170   0.98590   0.69173   0.01267  Uiso   1.00
C274   C     0.90601   0.93177   0.68321   0.01267  Uiso   1.00
C275   C     0.92549   0.92263   0.64509   0.01267  Uiso   1.00
C276   C     0.93870   0.87012   0.63816   0.01267  Uiso   1.00
C277   C     0.87422   0.08527   0.52981   0.01267  Uiso   1.00
C278   C     0.89160   0.12153   0.55878   0.01267  Uiso   1.00
C279   C     0.89360   0.09400   0.59338   0.01267  Uiso   1.00
C280   C     0.92652   0.04790   0.58973   0.01267  Uiso   1.00
C281   C     0.91416   0.01623   0.55621   0.01267  Uiso   1.00
C282   C     0.95410   0.97910   0.54728   0.01267  Uiso   1.00
C283   C     0.68576   0.06391   0.50024   0.01267  Uiso   1.00
C284   C     0.70345   0.11619   0.50783   0.01267  Uiso   1.00
C285   C     0.75184   0.11361   0.52874   0.01267  Uiso   1.00
C286   C     0.78901   0.07674   0.51244   0.01267  Uiso   1.00
C287   C     0.76535   0.02785   0.50242   0.01267  Uiso   1.00
C288   C     0.79850   0.99510   0.47997   0.01267  Uiso   1.00
C289   C     0.67374   0.96794   0.25629   0.01267  Uiso   1.00
C290   C     0.70316   0.91987   0.25013   0.01267  Uiso   1.00
C291   C     0.75068   0.92952   0.23308   0.01267  Uiso   1.00
C292   C     0.78007   0.97281   0.24789   0.01267  Uiso   1.00
C293   C     0.74719   0.01794   0.25425   0.01267  Uiso   1.00
C294   C     0.77150   0.05780   0.27784   0.01267  Uiso   1.00
C295   C     0.86509   0.98220   0.22897   0.01267  Uiso   1.00
C296   C     0.88931   0.94611   0.20216   0.01267  Uiso   1.00
C297   C     0.88580   0.96920   0.16640   0.01267  Uiso   1.00
C298   C     0.90331   0.02367   0.16491   0.01267  Uiso   1.00
C299   C     0.87805   0.05238   0.19410   0.01267  Uiso   1.00
C300   C     0.90210   0.10470   0.19696   0.01267  Uiso   1.00
C301   C     0.92215   0.06723   0.11150   0.01267  Uiso   1.00
C302   C     0.91410   0.05060   0.07305   0.01267  Uiso   1.00
C303   C     0.86424   0.06535   0.06177   0.01267  Uiso   1.00
C304   C     0.85616   0.11916   0.06690   0.01267  Uiso   1.00
C305   C     0.86831   0.13425   0.10451   0.01267  Uiso   1.00
C306   C     0.86760   0.19020   0.10822   0.01267  Uiso   1.00
C307   C     0.79515   0.16630   0.03537   0.01267  Uiso   1.00
C308   C     0.76248   0.14370   0.00694   0.01267  Uiso   1.00
C309   C     0.71490   0.12470   0.02588   0.01267  Uiso   1.00
C310   C     0.69190   0.16460   0.04742   0.01267  Uiso   1.00
C311   C     0.73004   0.19236   0.07077   0.01267  Uiso   1.00
C312   C     0.70860   0.23950   0.08720   0.01267  Uiso   1.00
C313   C     0.60713   0.15586   0.06656   0.01267  Uiso   1.00
C314   C     0.57650   0.11073   0.05600   0.01267  Uiso   1.00
C315   C     0.58055   0.07361   0.08561   0.01267  Uiso   1.00
C316   C     0.56660   0.09530   0.12028   0.01267  Uiso   1.00
C317   C     0.59372   0.14493   0.12891   0.01267  Uiso   1.00
C318   C     0.57740   0.16660   0.16290   0.01267  Uiso   1.00
C319   C     0.54213   0.04160   0.16946   0.01267  Uiso   1.00
C320   C     0.54618   0.98350   0.16768   0.01267  Uiso   1.00
C321   C     0.59652   0.96868   0.18264   0.01267  Uiso   1.00
C322   C     0.60879   0.99400   0.21821   0.01267  Uiso   1.00
C323   C     0.59620   0.04982   0.21767   0.01267  Uiso   1.00
C324   C     0.60100   0.07390   0.25299   0.01267  Uiso   1.00
C325   C     0.96884   0.56636   0.41508   0.01267  Uiso   1.00
C326   C     0.02332   0.55956   0.41441   0.01267  Uiso   1.00
C327   C     0.04645   0.60636   0.42828   0.01267  Uiso   1.00
C328   C     0.02616   0.62171   0.46362   0.01267  Uiso   1.00
C329   C     0.96951   0.62136   0.46395   0.01267  Uiso   1.00
C330   C     0.94806   0.62799   0.50077   0.01267  Uiso   1.00
C331   C     0.86998   0.66012   0.31393   0.01267  Uiso   1.00
C332   C     0.91036   0.62507   0.30366   0.01267  Uiso   1.00
C333   C     0.94620   0.61630   0.33284   0.01267  Uiso   1.00
C334   C     0.91860   0.60422   0.36776   0.01267  Uiso   1.00
C335   C     0.87910   0.63887   0.37477   0.01267  Uiso   1.00
C336   C     0.84790   0.62420   0.40676   0.01267  Uiso   1.00
C337   C     0.87069   0.85100   0.29262   0.01267  Uiso   1.00
C338   C     0.88590   0.81827   0.26181   0.01267  Uiso   1.00
C339   C     0.90543   0.76916   0.27704   0.01267  Uiso   1.00
C340   C     0.86679   0.74843   0.30185   0.01267  Uiso   1.00
C341   C     0.84820   0.78370   0.32815   0.01267  Uiso   1.00
C342   C     0.80330   0.76230   0.34770   0.01267  Uiso   1.00
C343   C     0.00278   0.95894   0.35891   0.01267  Uiso   1.00
C344   C     0.01540   0.94550   0.31947   0.01267  Uiso   1.00
C345   C     0.98590   0.90170   0.30827   0.01267  Uiso   1.00
C346   C     0.93177   0.90601   0.31679   0.01267  Uiso   1.00
C347   C     0.92263   0.92549   0.35491   0.01267  Uiso   1.00
C348   C     0.87012   0.93870   0.36184   0.01267  Uiso   1.00
C349   C     0.08527   0.87422   0.47019   0.01267  Uiso   1.00
C350   C     0.12153   0.89160   0.44122   0.01267  Uiso   1.00
C351   C     0.09400   0.89360   0.40662   0.01267  Uiso   1.00
C352   C     0.04790   0.92652   0.41027   0.01267  Uiso   1.00
C353   C     0.01623   0.91416   0.44379   0.01267  Uiso   1.00
C354   C     0.97910   0.95410   0.45272   0.01267  Uiso   1.00
C355   C     0.06391   0.68576   0.49976   0.01267  Uiso   1.00
C356   C     0.11619   0.70345   0.49217   0.01267  Uiso   1.00
C357   C     0.11361   0.75184   0.47126   0.01267  Uiso   1.00
C358   C     0.07674   0.78901   0.48756   0.01267  Uiso   1.00
C359   C     0.02785   0.76535   0.49758   0.01267  Uiso   1.00
C360   C     0.99510   0.79850   0.52003   0.01267  Uiso   1.00
C361   C     0.32626   0.03206   0.75629   0.01267  Uiso   1.00
C362   C     0.29684   0.08013   0.75013   0.01267  Uiso   1.00
C363   C     0.24932   0.07048   0.73308   0.01267  Uiso   1.00
C364   C     0.21993   0.02719   0.74789   0.01267  Uiso   1.00
C365   C     0.25281   0.98206   0.75425   0.01267  Uiso   1.00
C366   C     0.22850   0.94220   0.77784   0.01267  Uiso   1.00
C367   C     0.13491   0.01780   0.72897   0.01267  Uiso   1.00
C368   C     0.11069   0.05389   0.70216   0.01267  Uiso   1.00
C369   C     0.11420   0.03080   0.66640   0.01267  Uiso   1.00
C370   C     0.09669   0.97633   0.66491   0.01267  Uiso   1.00
C371   C     0.12195   0.94762   0.69410   0.01267  Uiso   1.00
C372   C     0.09790   0.89530   0.69696   0.01267  Uiso   1.00
C373   C     0.07785   0.93277   0.61150   0.01267  Uiso   1.00
C374   C     0.08590   0.94940   0.57305   0.01267  Uiso   1.00
C375   C     0.13576   0.93465   0.56177   0.01267  Uiso   1.00
C376   C     0.14384   0.88084   0.56690   0.01267  Uiso   1.00
C377   C     0.13169   0.86575   0.60451   0.01267  Uiso   1.00
C378   C     0.13240   0.80980   0.60822   0.01267  Uiso   1.00
C379   C     0.20485   0.83370   0.53537   0.01267  Uiso   1.00
C380   C     0.23752   0.85630   0.50694   0.01267  Uiso   1.00
C381   C     0.28510   0.87530   0.52588   0.01267  Uiso   1.00
C382   C     0.30810   0.83540   0.54742   0.01267  Uiso   1.00
C383   C     0.26996   0.80764   0.57077   0.01267  Uiso   1.00
C384   C     0.29140   0.76050   0.58720   0.01267  Uiso   1.00
C385   C     0.39287   0.84414   0.56656   0.01267  Uiso   1.00
C386   C     0.42350   0.88927   0.55600   0.01267  Uiso   1.00
C387   C     0.41945   0.92639   0.58561   0.01267  Uiso   1.00
C388   C     0.43340   0.90470   0.62028   0.01267  Uiso   1.00
C389   C     0.40628   0.85507   0.62891   0.01267  Uiso   1.00
C390   C     0.42260   0.83340   0.66290   0.01267  Uiso   1.00
C391   C     0.45787   0.95840   0.66946   0.01267  Uiso   1.00
C392   C     0.45382   0.01650   0.66768   0.01267  Uiso   1.00
C393   C     0.40348   0.03132   0.68264   0.01267  Uiso   1.00
C394   C     0.39121   0.00600   0.71821   0.01267  Uiso   1.00
C395   C     0.40380   0.95018   0.71767   0.01267  Uiso   1.00
C396   C     0.39900   0.92610   0.75299   0.01267  Uiso   1.00
C397   C     0.03116   0.43364   0.91508   0.01267  Uiso   1.00
C398   C     0.97668   0.44044   0.91441   0.01267  Uiso   1.00
C399   C     0.95355   0.39364   0.92828   0.01267  Uiso   1.00
C400   C     0.97384   0.37829   0.96362   0.01267  Uiso   1.00
C401   C     0.03049   0.37864   0.96395   0.01267  Uiso   1.00
C402   C     0.05194   0.37201   0.00077   0.01267  Uiso   1.00
C403   C     0.13002   0.33988   0.81393   0.01267  Uiso   1.00
C404   C     0.08964   0.37493   0.80366   0.01267  Uiso   1.00
C405   C     0.05380   0.38370   0.83284   0.01267  Uiso   1.00
C406   C     0.08140   0.39578   0.86776   0.01267  Uiso   1.00
C407   C     0.12090   0.36113   0.87477   0.01267  Uiso   1.00
C408   C     0.15210   0.37580   0.90676   0.01267  Uiso   1.00
C409   C     0.12931   0.14900   0.79262   0.01267  Uiso   1.00
C410   C     0.11410   0.18173   0.76181   0.01267  Uiso   1.00
C411   C     0.09457   0.23084   0.77704   0.01267  Uiso   1.00
C412   C     0.13321   0.25157   0.80185   0.01267  Uiso   1.00
C413   C     0.15180   0.21630   0.82815   0.01267  Uiso   1.00
C414   C     0.19670   0.23770   0.84770   0.01267  Uiso   1.00
C415   C     0.99722   0.04106   0.85891   0.01267  Uiso   1.00
C416   C     0.98460   0.05450   0.81947   0.01267  Uiso   1.00
C417   C     0.01410   0.09830   0.80827   0.01267  Uiso   1.00
C418   C     0.06823   0.09399   0.81679   0.01267  Uiso   1.00
C419   C     0.07737   0.07451   0.85491   0.01267  Uiso   1.00
C420   C     0.12988   0.06130   0.86184   0.01267  Uiso   1.00
C421   C     0.91473   0.12578   0.97019   0.01267  Uiso   1.00
C422   C     0.87847   0.10840   0.94122   0.01267  Uiso   1.00
C423   C     0.90600   0.10640   0.90662   0.01267  Uiso   1.00
C424   C     0.95210   0.07348   0.91027   0.01267  Uiso   1.00
C425   C     0.98377   0.08584   0.94379   0.01267  Uiso   1.00
C426   C     0.02090   0.04590   0.95272   0.01267  Uiso   1.00
C427   C     0.93609   0.31424   0.99976   0.01267  Uiso   1.00
C428   C     0.88381   0.29655   0.99217   0.01267  Uiso   1.00
C429   C     0.88639   0.24816   0.97126   0.01267  Uiso   1.00
C430   C     0.92326   0.21099   0.98756   0.01267  Uiso   1.00
C431   C     0.97215   0.23465   0.99758   0.01267  Uiso   1.00
C432   C     0.00490   0.20150   0.02003   0.01267  Uiso   1.00
C433   C     0.46794   0.82626   0.00629   0.01267  Uiso   1.00
C434   C     0.41987   0.79684   0.00013   0.01267  Uiso   1.00
C435   C     0.42952   0.74932   0.98308   0.01267  Uiso   1.00
C436   C     0.47281   0.71993   0.99789   0.01267  Uiso   1.00
C437   C     0.51794   0.75281   0.00425   0.01267  Uiso   1.00
C438   C     0.55780   0.72850   0.02784   0.01267  Uiso   1.00
C439   C     0.48220   0.63491   0.97897   0.01267  Uiso   1.00
C440   C     0.44611   0.61069   0.95216   0.01267  Uiso   1.00
C441   C     0.46920   0.61420   0.91640   0.01267  Uiso   1.00
C442   C     0.52367   0.59669   0.91491   0.01267  Uiso   1.00
C443   C     0.55238   0.62195   0.94410   0.01267  Uiso   1.00
C444   C     0.60470   0.59790   0.94696   0.01267  Uiso   1.00
C445   C     0.56723   0.57785   0.86150   0.01267  Uiso   1.00
C446   C     0.55060   0.58590   0.82305   0.01267  Uiso   1.00
C447   C     0.56535   0.63576   0.81177   0.01267  Uiso   1.00
C448   C     0.61916   0.64384   0.81690   0.01267  Uiso   1.00
C449   C     0.63425   0.63169   0.85451   0.01267  Uiso   1.00
C450   C     0.69020   0.63240   0.85822   0.01267  Uiso   1.00
C451   C     0.66630   0.70485   0.78537   0.01267  Uiso   1.00
C452   C     0.64370   0.73752   0.75694   0.01267  Uiso   1.00
C453   C     0.62470   0.78510   0.77588   0.01267  Uiso   1.00
C454   C     0.66460   0.80810   0.79742   0.01267  Uiso   1.00
C455   C     0.69236   0.76996   0.82077   0.01267  Uiso   1.00
C456   C     0.73950   0.79140   0.83720   0.01267  Uiso   1.00
C457   C     0.65586   0.89287   0.81656   0.01267  Uiso   1.00
C458   C     0.61073   0.92350   0.80600   0.01267  Uiso   1.00
C459   C     0.57361   0.91945   0.83561   0.01267  Uiso   1.00
C460   C     0.59530   0.93340   0.87028   0.01267  Uiso   1.00
C461   C     0.64493   0.90628   0.87891   0.01267  Uiso   1.00
C462   C     0.66660   0.92260   0.91290   0.01267  Uiso   1.00
C463   C     0.54160   0.95787   0.91946   0.01267  Uiso   1.00
C464   C     0.48350   0.95382   0.91768   0.01267  Uiso   1.00
C465   C     0.46868   0.90348   0.93264   0.01267  Uiso   1.00
C466   C     0.49400   0.89121   0.96821   0.01267  Uiso   1.00
C467   C     0.54982   0.90380   0.96767   0.01267  Uiso   1.00
C468   C     0.57390   0.89900   0.00299   0.01267  Uiso   1.00
C469   C     0.06636   0.53116   0.16508   0.01267  Uiso   1.00
C470   C     0.05956   0.47668   0.16441   0.01267  Uiso   1.00
C471   C     0.10636   0.45355   0.17828   0.01267  Uiso   1.00
C472   C     0.12171   0.47384   0.21362   0.01267  Uiso   1.00
C473   C     0.12136   0.53049   0.21395   0.01267  Uiso   1.00
C474   C     0.12799   0.55194   0.25077   0.01267  Uiso   1.00
C475   C     0.16012   0.63002   0.06393   0.01267  Uiso   1.00
C476   C     0.12507   0.58964   0.05366   0.01267  Uiso   1.00
C477   C     0.11630   0.55380   0.08284   0.01267  Uiso   1.00
C478   C     0.10422   0.58140   0.11776   0.01267  Uiso   1.00
C479   C     0.13887   0.62090   0.12477   0.01267  Uiso   1.00
C480   C     0.12420   0.65210   0.15676   0.01267  Uiso   1.00
C481   C     0.35100   0.62931   0.04262   0.01267  Uiso   1.00
C482   C     0.31827   0.61410   0.01181   0.01267  Uiso   1.00
C483   C     0.26916   0.59457   0.02704   0.01267  Uiso   1.00
C484   C     0.24843   0.63321   0.05185   0.01267  Uiso   1.00
C485   C     0.28370   0.65180   0.07815   0.01267  Uiso   1.00
C486   C     0.26230   0.69670   0.09770   0.01267  Uiso   1.00
C487   C     0.45894   0.49722   0.10891   0.01267  Uiso   1.00
C488   C     0.44550   0.48460   0.06947   0.01267  Uiso   1.00
C489   C     0.40170   0.51410   0.05827   0.01267  Uiso   1.00
C490   C     0.40601   0.56823   0.06679   0.01267  Uiso   1.00
C491   C     0.42549   0.57737   0.10491   0.01267  Uiso   1.00
C492   C     0.43870   0.62988   0.11184   0.01267  Uiso   1.00
C493   C     0.37422   0.41473   0.22019   0.01267  Uiso   1.00
C494   C     0.39160   0.37847   0.19122   0.01267  Uiso   1.00
C495   C     0.39360   0.40600   0.15662   0.01267  Uiso   1.00
C496   C     0.42652   0.45210   0.16027   0.01267  Uiso   1.00
C497   C     0.41416   0.48377   0.19379   0.01267  Uiso   1.00
C498   C     0.45410   0.52090   0.20272   0.01267  Uiso   1.00
C499   C     0.18576   0.43609   0.24976   0.01267  Uiso   1.00
C500   C     0.20345   0.38381   0.24217   0.01267  Uiso   1.00
C501   C     0.25184   0.38639   0.22126   0.01267  Uiso   1.00
C502   C     0.28901   0.42326   0.23756   0.01267  Uiso   1.00
C503   C     0.26535   0.47215   0.24758   0.01267  Uiso   1.00
C504   C     0.29850   0.50490   0.27003   0.01267  Uiso   1.00
C505   C     0.53206   0.17374   0.50629   0.01267  Uiso   1.00
C506   C     0.58013   0.20316   0.50013   0.01267  Uiso   1.00
C507   C     0.57048   0.25068   0.48308   0.01267  Uiso   1.00
C508   C     0.52719   0.28007   0.49789   0.01267  Uiso   1.00
C509   C     0.48206   0.24719   0.50425   0.01267  Uiso   1.00
C510   C     0.44220   0.27150   0.52784   0.01267  Uiso   1.00
C511   C     0.51780   0.36509   0.47897   0.01267  Uiso   1.00
C512   C     0.55389   0.38931   0.45216   0.01267  Uiso   1.00
C513   C     0.53080   0.38580   0.41640   0.01267  Uiso   1.00
C514   C     0.47633   0.40331   0.41491   0.01267  Uiso   1.00
C515   C     0.44762   0.37805   0.44410   0.01267  Uiso   1.00
C516   C     0.39530   0.40210   0.44696   0.01267  Uiso   1.00
C517   C     0.43277   0.42215   0.36150   0.01267  Uiso   1.00
C518   C     0.44940   0.41410   0.32305   0.01267  Uiso   1.00
C519   C     0.43465   0.36424   0.31177   0.01267  Uiso   1.00
C520   C     0.38084   0.35616   0.31690   0.01267  Uiso   1.00
C521   C     0.36575   0.36831   0.35451   0.01267  Uiso   1.00
C522   C     0.30980   0.36760   0.35822   0.01267  Uiso   1.00
C523   C     0.33370   0.29515   0.28537   0.01267  Uiso   1.00
C524   C     0.35630   0.26248   0.25694   0.01267  Uiso   1.00
C525   C     0.37530   0.21490   0.27588   0.01267  Uiso   1.00
C526   C     0.33540   0.19190   0.29742   0.01267  Uiso   1.00
C527   C     0.30764   0.23004   0.32077   0.01267  Uiso   1.00
C528   C     0.26050   0.20860   0.33720   0.01267  Uiso   1.00
C529   C     0.34414   0.10713   0.31656   0.01267  Uiso   1.00
C530   C     0.38927   0.07650   0.30600   0.01267  Uiso   1.00
C531   C     0.42639   0.08055   0.33561   0.01267  Uiso   1.00
C532   C     0.40470   0.06660   0.37028   0.01267  Uiso   1.00
C533   C     0.35507   0.09372   0.37891   0.01267  Uiso   1.00
C534   C     0.33340   0.07740   0.41290   0.01267  Uiso   1.00
C535   C     0.45840   0.04213   0.41946   0.01267  Uiso   1.00
C536   C     0.51650   0.04618   0.41768   0.01267  Uiso   1.00
C537   C     0.53132   0.09652   0.43264   0.01267  Uiso   1.00
C538   C     0.50600   0.10879   0.46821   0.01267  Uiso   1.00
C539   C     0.45018   0.09620   0.46767   0.01267  Uiso   1.00
C540   C     0.42610   0.10100   0.50299   0.01267  Uiso   1.00
C541   C     0.93364   0.46884   0.66508   0.01267  Uiso   1.00
C542   C     0.94044   0.52332   0.66441   0.01267  Uiso   1.00
C543   C     0.89364   0.54645   0.67828   0.01267  Uiso   1.00
C544   C     0.87829   0.52616   0.71362   0.01267  Uiso   1.00
C545   C     0.87864   0.46951   0.71395   0.01267  Uiso   1.00
C546   C     0.87201   0.44806   0.75077   0.01267  Uiso   1.00
C547   C     0.83988   0.36998   0.56393   0.01267  Uiso   1.00
C548   C     0.87493   0.41036   0.55366   0.01267  Uiso   1.00
C549   C     0.88370   0.44620   0.58284   0.01267  Uiso   1.00
C550   C     0.89578   0.41860   0.61776   0.01267  Uiso   1.00
C551   C     0.86113   0.37910   0.62477   0.01267  Uiso   1.00
C552   C     0.87580   0.34790   0.65676   0.01267  Uiso   1.00
C553   C     0.64900   0.37069   0.54262   0.01267  Uiso   1.00
C554   C     0.68173   0.38590   0.51181   0.01267  Uiso   1.00
C555   C     0.73084   0.40543   0.52704   0.01267  Uiso   1.00
C556   C     0.75157   0.36679   0.55185   0.01267  Uiso   1.00
C557   C     0.71630   0.34820   0.57815   0.01267  Uiso   1.00
C558   C     0.73770   0.30330   0.59770   0.01267  Uiso   1.00
C559   C     0.54106   0.50278   0.60891   0.01267  Uiso   1.00
C560   C     0.55450   0.51540   0.56947   0.01267  Uiso   1.00
C561   C     0.59830   0.48590   0.55827   0.01267  Uiso   1.00
C562   C     0.59399   0.43177   0.56679   0.01267  Uiso   1.00
C563   C     0.57451   0.42263   0.60491   0.01267  Uiso   1.00
C564   C     0.56130   0.37012   0.61184   0.01267  Uiso   1.00
C565   C     0.62578   0.58527   0.72019   0.01267  Uiso   1.00
C566   C     0.60840   0.62153   0.69122   0.01267  Uiso   1.00
C567   C     0.60640   0.59400   0.65662   0.01267  Uiso   1.00
C568   C     0.57348   0.54790   0.66027   0.01267  Uiso   1.00
C569   C     0.58584   0.51623   0.69379   0.01267  Uiso   1.00
C570   C     0.54590   0.47910   0.70272   0.01267  Uiso   1.00
C571   C     0.81424   0.56391   0.74976   0.01267  Uiso   1.00
C572   C     0.79655   0.61619   0.74217   0.01267  Uiso   1.00
C573   C     0.74816   0.61361   0.72126   0.01267  Uiso   1.00
C574   C     0.71099   0.57674   0.73756   0.01267  Uiso   1.00
C575   C     0.73465   0.52785   0.74758   0.01267  Uiso   1.00
C576   C     0.70150   0.49510   0.77003   0.01267  Uiso   1.00
O1     O     0.97500   0.67650   0.08670   0.01267  Uiso   1.00
O2     O     0.66670   0.07390   0.84340   0.01267  Uiso   1.00
O3     O     0.79681   0.50277   0.97609   0.01267  Uiso   1.00
O4     O     0.82474   0.38490   0.01812   0.01267  Uiso   1.00
O5     O     0.71995   0.38637   0.01649   0.01267  Uiso   1.00
O6     O     0.68426   0.48568   0.02871   0.01267  Uiso   1.00
O7     O     0.75540   0.60007   0.97028   0.01267  Uiso   1.00
O8     O     0.61204   0.52993   0.02242   0.01267  Uiso   1.00
O9     O     0.63015   0.40000   0.04486   0.01267  Uiso   1.00
O10    O     0.58767   0.44078   0.10907   0.01267  Uiso   1.00
O11    O     0.61247   0.54241   0.11871   0.01267  Uiso   1.00
O12    O     0.54601   0.60410   0.04911   0.01267  Uiso   1.00
O13    O     0.58244   0.61867   0.13601   0.01267  Uiso   1.00
O14    O     0.57672   0.49877   0.17870   0.01267  Uiso   1.00
O15    O     0.64457   0.55165   0.22388   0.01267  Uiso   1.00
O16    O     0.69344   0.63062   0.18985   0.01267  Uiso   1.00
O17    O     0.59829   0.71455   0.16450   0.01267  Uiso   1.00
O18    O     0.72922   0.70706   0.19972   0.01267  Uiso   1.00
O19    O     0.71464   0.60396   0.26042   0.01267  Uiso   1.00
O20    O     0.81787   0.60709   0.25020   0.01267  Uiso   1.00
O21    O     0.84358   0.64313   0.17974   0.01267  Uiso   1.00
O22    O     0.80970   0.77036   0.18979   0.01267  Uiso   1.00
O23    O     0.91145   0.67714   0.15105   0.01267  Uiso   1.00
O24    O     0.90753   0.59150   0.22525   0.01267  Uiso   1.00
O25    O     0.95090   0.53237   0.17278   0.01267  Uiso   1.00
O26    O     0.92135   0.56026   0.10344   0.01267  Uiso   1.00
O27    O     0.95143   0.55754   0.04580   0.01267  Uiso   1.00
O28    O     0.96181   0.46522   0.11668   0.01267  Uiso   1.00
O29    O     0.90307   0.41646   0.06361   0.01267  Uiso   1.00
O30    O     0.83983   0.48583   0.02666   0.01267  Uiso   1.00
O31    O     0.93515   0.55255   0.97528   0.01267  Uiso   1.00
O32    O     0.54750   0.07412   0.79907   0.01267  Uiso   1.00
O33    O     0.46078   0.05123   0.87162   0.01267  Uiso   1.00
O34    O     0.40051   0.09818   0.81779   0.01267  Uiso   1.00
O35    O     0.45934   0.17281   0.78173   0.01267  Uiso   1.00
O36    O     0.53461   0.09312   0.72535   0.01267  Uiso   1.00
O37    O     0.65457   0.14208   0.90463   0.01267  Uiso   1.00
O38    O     0.56431   0.14213   0.97654   0.01267  Uiso   1.00
O39    O     0.52170   0.07792   0.92656   0.01267  Uiso   1.00
O40    O     0.54489   0.10823   0.85515   0.01267  Uiso   1.00
O41    O     0.66810   0.32721   0.93884   0.01267  Uiso   1.00
O42    O     0.57852   0.34132   0.01081   0.01267  Uiso   1.00
O43    O     0.58096   0.23699   0.99985   0.01267  Uiso   1.00
O44    O     0.61057   0.20726   0.92971   0.01267  Uiso   1.00
O45    O     0.73436   0.24780   0.92553   0.01267  Uiso   1.00
O46    O     0.54706   0.46760   0.88811   0.01267  Uiso   1.00
O47    O     0.43415   0.43890   0.93303   0.01267  Uiso   1.00
O48    O     0.50460   0.39512   0.97772   0.01267  Uiso   1.00
O49    O     0.58924   0.35927   0.93606   0.01267  Uiso   1.00
O50    O     0.65078   0.47152   0.91513   0.01267  Uiso   1.00
O51    O     0.45494   0.40763   0.77531   0.01267  Uiso   1.00
O52    O     0.33586   0.36297   0.80935   0.01267  Uiso   1.00
O53    O     0.37788   0.41215   0.87085   0.01267  Uiso   1.00
O54    O     0.48213   0.41837   0.87022   0.01267  Uiso   1.00
O55    O     0.49682   0.49730   0.78258   0.01267  Uiso   1.00
O56    O     0.46571   0.22203   0.73100   0.01267  Uiso   1.00
O57    O     0.35666   0.16994   0.77581   0.01267  Uiso   1.00
O58    O     0.34014   0.27192   0.78142   0.01267  Uiso   1.00
O59    O     0.43239   0.32679   0.78741   0.01267  Uiso   1.00
O60    O     0.55290   0.27911   0.72625   0.01267  Uiso   1.00
O61    O     0.02500   0.32350   0.58670   0.01267  Uiso   1.00
O62    O     0.33330   0.92610   0.34340   0.01267  Uiso   1.00
O63    O     0.20319   0.49723   0.47609   0.01267  Uiso   1.00
O64    O     0.17526   0.61510   0.51812   0.01267  Uiso   1.00
O65    O     0.28005   0.61363   0.51649   0.01267  Uiso   1.00
O66    O     0.31574   0.51432   0.52871   0.01267  Uiso   1.00
O67    O     0.24460   0.39993   0.47028   0.01267  Uiso   1.00
O68    O     0.38796   0.47007   0.52242   0.01267  Uiso   1.00
O69    O     0.36985   0.60000   0.54486   0.01267  Uiso   1.00
O70    O     0.41233   0.55922   0.60907   0.01267  Uiso   1.00
O71    O     0.38753   0.45759   0.61871   0.01267  Uiso   1.00
O72    O     0.45399   0.39590   0.54911   0.01267  Uiso   1.00
O73    O     0.41756   0.38133   0.63601   0.01267  Uiso   1.00
O74    O     0.42328   0.50123   0.67870   0.01267  Uiso   1.00
O75    O     0.35543   0.44835   0.72388   0.01267  Uiso   1.00
O76    O     0.30656   0.36938   0.68985   0.01267  Uiso   1.00
O77    O     0.40171   0.28545   0.66450   0.01267  Uiso   1.00
O78    O     0.27078   0.29294   0.69972   0.01267  Uiso   1.00
O79    O     0.28536   0.39604   0.76042   0.01267  Uiso   1.00
O80    O     0.18213   0.39291   0.75020   0.01267  Uiso   1.00
O81    O     0.15642   0.35687   0.67974   0.01267  Uiso   1.00
O82    O     0.19030   0.22964   0.68979   0.01267  Uiso   1.00
O83    O     0.08855   0.32286   0.65105   0.01267  Uiso   1.00
O84    O     0.09247   0.40850   0.72525   0.01267  Uiso   1.00
O85    O     0.04910   0.46763   0.67278   0.01267  Uiso   1.00
O86    O     0.07865   0.43974   0.60344   0.01267  Uiso   1.00
O87    O     0.04857   0.44246   0.54580   0.01267  Uiso   1.00
O88    O     0.03819   0.53478   0.61668   0.01267  Uiso   1.00
O89    O     0.09693   0.58354   0.56361   0.01267  Uiso   1.00
O90    O     0.16017   0.51417   0.52666   0.01267  Uiso   1.00
O91    O     0.06485   0.44745   0.47528   0.01267  Uiso   1.00
O92    O     0.45250   0.92588   0.29907   0.01267  Uiso   1.00
O93    O     0.53922   0.94877   0.37162   0.01267  Uiso   1.00
O94    O     0.59949   0.90182   0.31779   0.01267  Uiso   1.00
O95    O     0.54066   0.82719   0.28173   0.01267  Uiso   1.00
O96    O     0.46539   0.90688   0.22535   0.01267  Uiso   1.00
O97    O     0.34543   0.85792   0.40463   0.01267  Uiso   1.00
O98    O     0.43569   0.85787   0.47654   0.01267  Uiso   1.00
O99    O     0.47830   0.92208   0.42656   0.01267  Uiso   1.00
O100   O     0.45511   0.89177   0.35515   0.01267  Uiso   1.00
O101   O     0.33190   0.67279   0.43884   0.01267  Uiso   1.00
O102   O     0.42148   0.65868   0.51081   0.01267  Uiso   1.00
O103   O     0.41904   0.76301   0.49985   0.01267  Uiso   1.00
O104   O     0.38943   0.79274   0.42971   0.01267  Uiso   1.00
O105   O     0.26564   0.75220   0.42553   0.01267  Uiso   1.00
O106   O     0.45294   0.53240   0.38811   0.01267  Uiso   1.00
O107   O     0.56585   0.56110   0.43303   0.01267  Uiso   1.00
O108   O     0.49540   0.60488   0.47772   0.01267  Uiso   1.00
O109   O     0.41076   0.64073   0.43606   0.01267  Uiso   1.00
O110   O     0.34922   0.52848   0.41513   0.01267  Uiso   1.00
O111   O     0.54506   0.59237   0.27531   0.01267  Uiso   1.00
O112   O     0.66414   0.63703   0.30935   0.01267  Uiso   1.00
O113   O     0.62212   0.58785   0.37085   0.01267  Uiso   1.00
O114   O     0.51787   0.58163   0.37022   0.01267  Uiso   1.00
O115   O     0.50318   0.50270   0.28258   0.01267  Uiso   1.00
O116   O     0.53429   0.77797   0.23100   0.01267  Uiso   1.00
O117   O     0.64334   0.83006   0.27581   0.01267  Uiso   1.00
O118   O     0.65986   0.72808   0.28142   0.01267  Uiso   1.00
O119   O     0.56761   0.67321   0.28741   0.01267  Uiso   1.00
O120   O     0.44710   0.72089   0.22625   0.01267  Uiso   1.00
O121   O     0.82350   0.47500   0.33670   0.01267  Uiso   1.00
O122   O     0.42610   0.16670   0.09340   0.01267  Uiso   1.00
O123   O     0.99723   0.29681   0.22609   0.01267  Uiso   1.00
O124   O     0.11510   0.32474   0.26812   0.01267  Uiso   1.00
O125   O     0.11363   0.21995   0.26649   0.01267  Uiso   1.00
O126   O     0.01432   0.18426   0.27871   0.01267  Uiso   1.00
O127   O     0.89993   0.25540   0.22028   0.01267  Uiso   1.00
O128   O     0.97007   0.11204   0.27242   0.01267  Uiso   1.00
O129   O     0.10000   0.13015   0.29486   0.01267  Uiso   1.00
O130   O     0.05922   0.08767   0.35907   0.01267  Uiso   1.00
O131   O     0.95759   0.11247   0.36871   0.01267  Uiso   1.00
O132   O     0.89590   0.04601   0.29911   0.01267  Uiso   1.00
O133   O     0.88133   0.08244   0.38601   0.01267  Uiso   1.00
O134   O     0.00123   0.07672   0.42870   0.01267  Uiso   1.00
O135   O     0.94835   0.14457   0.47388   0.01267  Uiso   1.00
O136   O     0.86938   0.19344   0.43985   0.01267  Uiso   1.00
O137   O     0.78545   0.09829   0.41450   0.01267  Uiso   1.00
O138   O     0.79294   0.22922   0.44972   0.01267  Uiso   1.00
O139   O     0.89604   0.21464   0.51042   0.01267  Uiso   1.00
O140   O     0.89291   0.31787   0.50020   0.01267  Uiso   1.00
O141   O     0.85687   0.34358   0.42974   0.01267  Uiso   1.00
O142   O     0.72964   0.30970   0.43979   0.01267  Uiso   1.00
O143   O     0.82286   0.41145   0.40105   0.01267  Uiso   1.00
O144   O     0.90850   0.40753   0.47525   0.01267  Uiso   1.00
O145   O     0.96763   0.45090   0.42278   0.01267  Uiso   1.00
O146   O     0.93974   0.42135   0.35344   0.01267  Uiso   1.00
O147   O     0.94246   0.45143   0.29580   0.01267  Uiso   1.00
O148   O     0.03478   0.46181   0.36668   0.01267  Uiso   1.00
O149   O     0.08354   0.40307   0.31361   0.01267  Uiso   1.00
O150   O     0.01417   0.33983   0.27666   0.01267  Uiso   1.00
O151   O     0.94745   0.43515   0.22528   0.01267  Uiso   1.00
O152   O     0.42588   0.04750   0.04907   0.01267  Uiso   1.00
O153   O     0.44877   0.96078   0.12162   0.01267  Uiso   1.00
O154   O     0.40182   0.90051   0.06779   0.01267  Uiso   1.00
O155   O     0.32719   0.95934   0.03173   0.01267  Uiso   1.00
O156   O     0.40688   0.03461   0.97535   0.01267  Uiso   1.00
O157   O     0.35792   0.15457   0.15463   0.01267  Uiso   1.00
O158   O     0.35787   0.06431   0.22654   0.01267  Uiso   1.00
O159   O     0.42208   0.02170   0.17656   0.01267  Uiso   1.00
O160   O     0.39177   0.04489   0.10515   0.01267  Uiso   1.00
O161   O     0.17279   0.16810   0.18884   0.01267  Uiso   1.00
O162   O     0.15868   0.07852   0.26081   0.01267  Uiso   1.00
O163   O     0.26301   0.08096   0.24985   0.01267  Uiso   1.00
O164   O     0.29274   0.11057   0.17971   0.01267  Uiso   1.00
O165   O     0.25220   0.23436   0.17553   0.01267  Uiso   1.00
O166   O     0.03240   0.04706   0.13811   0.01267  Uiso   1.00
O167   O     0.06110   0.93415   0.18303   0.01267  Uiso   1.00
O168   O     0.10488   0.00460   0.22772   0.01267  Uiso   1.00
O169   O     0.14073   0.08924   0.18606   0.01267  Uiso   1.00
O170   O     0.02848   0.15078   0.16513   0.01267  Uiso   1.00
O171   O     0.09237   0.95494   0.02531   0.01267  Uiso   1.00
O172   O     0.13703   0.83586   0.05935   0.01267  Uiso   1.00
O173   O     0.08785   0.87788   0.12085   0.01267  Uiso   1.00
O174   O     0.08163   0.98213   0.12022   0.01267  Uiso   1.00
O175   O     0.00270   0.99682   0.03258   0.01267  Uiso   1.00
O176   O     0.27797   0.96571   0.98100   0.01267  Uiso   1.00
O177   O     0.33006   0.85666   0.02581   0.01267  Uiso   1.00
O178   O     0.22808   0.84014   0.03142   0.01267  Uiso   1.00
O179   O     0.17321   0.93239   0.03741   0.01267  Uiso   1.00
O180   O     0.22089   0.05290   0.97625   0.01267  Uiso   1.00
O181   O     0.17650   0.52500   0.83670   0.01267  Uiso   1.00
O182   O     0.57390   0.83330   0.59340   0.01267  Uiso   1.00
O183   O     0.00277   0.70319   0.72609   0.01267  Uiso   1.00
O184   O     0.88490   0.67526   0.76812   0.01267  Uiso   1.00
O185   O     0.88637   0.78005   0.76649   0.01267  Uiso   1.00
O186   O     0.98568   0.81574   0.77871   0.01267  Uiso   1.00
O187   O     0.10007   0.74460   0.72028   0.01267  Uiso   1.00
O188   O     0.02993   0.88796   0.77242   0.01267  Uiso   1.00
O189   O     0.90000   0.86985   0.79486   0.01267  Uiso   1.00
O190   O     0.94078   0.91233   0.85907   0.01267  Uiso   1.00
O191   O     0.04241   0.88753   0.86871   0.01267  Uiso   1.00
O192   O     0.10410   0.95399   0.79911   0.01267  Uiso   1.00
O193   O     0.11867   0.91756   0.88601   0.01267  Uiso   1.00
O194   O     0.99877   0.92328   0.92870   0.01267  Uiso   1.00
O195   O     0.05165   0.85543   0.97388   0.01267  Uiso   1.00
O196   O     0.13062   0.80656   0.93985   0.01267  Uiso   1.00
O197   O     0.21455   0.90171   0.91450   0.01267  Uiso   1.00
O198   O     0.20706   0.77078   0.94972   0.01267  Uiso   1.00
O199   O     0.10396   0.78536   0.01042   0.01267  Uiso   1.00
O200   O     0.10709   0.68213   0.00020   0.01267  Uiso   1.00
O201   O     0.14313   0.65642   0.92974   0.01267  Uiso   1.00
O202   O     0.27036   0.69030   0.93979   0.01267  Uiso   1.00
O203   O     0.17714   0.58855   0.90105   0.01267  Uiso   1.00
O204   O     0.09150   0.59247   0.97525   0.01267  Uiso   1.00
O205   O     0.03237   0.54910   0.92278   0.01267  Uiso   1.00
O206   O     0.06026   0.57865   0.85344   0.01267  Uiso   1.00
O207   O     0.05754   0.54857   0.79580   0.01267  Uiso   1.00
O208   O     0.96522   0.53819   0.86668   0.01267  Uiso   1.00
O209   O     0.91646   0.59693   0.81361   0.01267  Uiso   1.00
O210   O     0.98583   0.66017   0.77666   0.01267  Uiso   1.00
O211   O     0.05255   0.56485   0.72528   0.01267  Uiso   1.00
O212   O     0.57412   0.95250   0.54907   0.01267  Uiso   1.00
O213   O     0.55123   0.03922   0.62162   0.01267  Uiso   1.00
O214   O     0.59818   0.09949   0.56779   0.01267  Uiso   1.00
O215   O     0.67281   0.04066   0.53173   0.01267  Uiso   1.00
O216   O     0.59312   0.96539   0.47535   0.01267  Uiso   1.00
O217   O     0.64208   0.84543   0.65463   0.01267  Uiso   1.00
O218   O     0.64213   0.93569   0.72654   0.01267  Uiso   1.00
O219   O     0.57792   0.97830   0.67656   0.01267  Uiso   1.00
O220   O     0.60823   0.95511   0.60515   0.01267  Uiso   1.00
O221   O     0.82721   0.83190   0.68884   0.01267  Uiso   1.00
O222   O     0.84132   0.92148   0.76081   0.01267  Uiso   1.00
O223   O     0.73699   0.91904   0.74985   0.01267  Uiso   1.00
O224   O     0.70726   0.88943   0.67971   0.01267  Uiso   1.00
O225   O     0.74780   0.76564   0.67553   0.01267  Uiso   1.00
O226   O     0.96760   0.95294   0.63811   0.01267  Uiso   1.00
O227   O     0.93890   0.06585   0.68303   0.01267  Uiso   1.00
O228   O     0.89512   0.99540   0.72772   0.01267  Uiso   1.00
O229   O     0.85927   0.91076   0.68606   0.01267  Uiso   1.00
O230   O     0.97152   0.84922   0.66513   0.01267  Uiso   1.00
O231   O     0.90763   0.04506   0.52531   0.01267  Uiso   1.00
O232   O     0.86297   0.16414   0.55935   0.01267  Uiso   1.00
O233   O     0.91215   0.12212   0.62085   0.01267  Uiso   1.00
O234   O     0.91837   0.01787   0.62022   0.01267  Uiso   1.00
O235   O     0.99730   0.00318   0.53258   0.01267  Uiso   1.00
O236   O     0.72203   0.03429   0.48100   0.01267  Uiso   1.00
O237   O     0.66994   0.14334   0.52581   0.01267  Uiso   1.00
O238   O     0.77192   0.15986   0.53142   0.01267  Uiso   1.00
O239   O     0.82679   0.06761   0.53741   0.01267  Uiso   1.00
O240   O     0.77911   0.94710   0.47625   0.01267  Uiso   1.00
O241   O     0.52500   0.17650   0.16330   0.01267  Uiso   1.00
O242   O     0.83330   0.57390   0.40660   0.01267  Uiso   1.00
O243   O     0.70319   0.00277   0.27391   0.01267  Uiso   1.00
O244   O     0.67526   0.88490   0.23188   0.01267  Uiso   1.00
O245   O     0.78005   0.88637   0.23351   0.01267  Uiso   1.00
O246   O     0.81574   0.98568   0.22129   0.01267  Uiso   1.00
O247   O     0.74460   0.10007   0.27972   0.01267  Uiso   1.00
O248   O     0.88796   0.02993   0.22758   0.01267  Uiso   1.00
O249   O     0.86985   0.90000   0.20514   0.01267  Uiso   1.00
O250   O     0.91233   0.94078   0.14093   0.01267  Uiso   1.00
O251   O     0.88753   0.04241   0.13129   0.01267  Uiso   1.00
O252   O     0.95399   0.10410   0.20089   0.01267  Uiso   1.00
O253   O     0.91756   0.11867   0.11399   0.01267  Uiso   1.00
O254   O     0.92328   0.99877   0.07130   0.01267  Uiso   1.00
O255   O     0.85543   0.05165   0.02612   0.01267  Uiso   1.00
O256   O     0.80656   0.13062   0.06015   0.01267  Uiso   1.00
O257   O     0.90171   0.21455   0.08550   0.01267  Uiso   1.00
O258   O     0.77078   0.20706   0.05028   0.01267  Uiso   1.00
O259   O     0.78536   0.10396   0.98958   0.01267  Uiso   1.00
O260   O     0.68213   0.10709   0.99980   0.01267  Uiso   1.00
O261   O     0.65642   0.14313   0.07026   0.01267  Uiso   1.00
O262   O     0.69030   0.27036   0.06021   0.01267  Uiso   1.00
O263   O     0.58855   0.17714   0.09895   0.01267  Uiso   1.00
O264   O     0.59247   0.09150   0.02475   0.01267  Uiso   1.00
O265   O     0.54910   0.03237   0.07722   0.01267  Uiso   1.00
O266   O     0.57865   0.06026   0.14656   0.01267  Uiso   1.00
O267   O     0.54857   0.05754   0.20420   0.01267  Uiso   1.00
O268   O     0.53819   0.96522   0.13332   0.01267  Uiso   1.00
O269   O     0.59693   0.91646   0.18639   0.01267  Uiso   1.00
O270   O     0.66017   0.98583   0.22334   0.01267  Uiso   1.00
O271   O     0.56485   0.05255   0.27472   0.01267  Uiso   1.00
O272   O     0.95250   0.57412   0.45093   0.01267  Uiso   1.00
O273   O     0.03922   0.55123   0.37838   0.01267  Uiso   1.00
O274   O     0.09949   0.59818   0.43221   0.01267  Uiso   1.00
O275   O     0.04066   0.67281   0.46827   0.01267  Uiso   1.00
O276   O     0.96539   0.59312   0.52465   0.01267  Uiso   1.00
O277   O     0.84543   0.64208   0.34537   0.01267  Uiso   1.00
O278   O     0.93569   0.64213   0.27346   0.01267  Uiso   1.00
O279   O     0.97830   0.57792   0.32344   0.01267  Uiso   1.00
O280   O     0.95511   0.60823   0.39485   0.01267  Uiso   1.00
O281   O     0.83190   0.82721   0.31116   0.01267  Uiso   1.00
O282   O     0.92148   0.84132   0.23919   0.01267  Uiso   1.00
O283   O     0.91904   0.73699   0.25015   0.01267  Uiso   1.00
O284   O     0.88943   0.70726   0.32029   0.01267  Uiso   1.00
O285   O     0.76564   0.74780   0.32447   0.01267  Uiso   1.00
O286   O     0.95294   0.96760   0.36189   0.01267  Uiso   1.00
O287   O     0.06585   0.93890   0.31697   0.01267  Uiso   1.00
O288   O     0.99540   0.89512   0.27228   0.01267  Uiso   1.00
O289   O     0.91076   0.85927   0.31394   0.01267  Uiso   1.00
O290   O     0.84922   0.97152   0.33487   0.01267  Uiso   1.00
O291   O     0.04506   0.90763   0.47469   0.01267  Uiso   1.00
O292   O     0.16414   0.86297   0.44065   0.01267  Uiso   1.00
O293   O     0.12212   0.91215   0.37915   0.01267  Uiso   1.00
O294   O     0.01787   0.91837   0.37978   0.01267  Uiso   1.00
O295   O     0.00318   0.99730   0.46742   0.01267  Uiso   1.00
O296   O     0.03429   0.72203   0.51900   0.01267  Uiso   1.00
O297   O     0.14334   0.66994   0.47419   0.01267  Uiso   1.00
O298   O     0.15986   0.77192   0.46858   0.01267  Uiso   1.00
O299   O     0.06761   0.82679   0.46259   0.01267  Uiso   1.00
O300   O     0.94710   0.77911   0.52375   0.01267  Uiso   1.00
O301   O     0.47500   0.82350   0.66330   0.01267  Uiso   1.00
O302   O     0.16670   0.42610   0.90660   0.01267  Uiso   1.00
O303   O     0.29681   0.99723   0.77391   0.01267  Uiso   1.00
O304   O     0.32474   0.11510   0.73188   0.01267  Uiso   1.00
O305   O     0.21995   0.11363   0.73351   0.01267  Uiso   1.00
O306   O     0.18426   0.01432   0.72129   0.01267  Uiso   1.00
O307   O     0.25540   0.89993   0.77972   0.01267  Uiso   1.00
O308   O     0.11204   0.97007   0.72758   0.01267  Uiso   1.00
O309   O     0.13015   0.10000   0.70514   0.01267  Uiso   1.00
O310   O     0.08767   0.05922   0.64093   0.01267  Uiso   1.00
O311   O     0.11247   0.95759   0.63129   0.01267  Uiso   1.00
O312   O     0.04601   0.89590   0.70089   0.01267  Uiso   1.00
O313   O     0.08244   0.88133   0.61399   0.01267  Uiso   1.00
O314   O     0.07672   0.00123   0.57130   0.01267  Uiso   1.00
O315   O     0.14457   0.94835   0.52612   0.01267  Uiso   1.00
O316   O     0.19344   0.86938   0.56015   0.01267  Uiso   1.00
O317   O     0.09829   0.78545   0.58550   0.01267  Uiso   1.00
O318   O     0.22922   0.79294   0.55028   0.01267  Uiso   1.00
O319   O     0.21464   0.89604   0.48958   0.01267  Uiso   1.00
O320   O     0.31787   0.89291   0.49980   0.01267  Uiso   1.00
O321   O     0.34358   0.85687   0.57026   0.01267  Uiso   1.00
O322   O     0.30970   0.72964   0.56021   0.01267  Uiso   1.00
O323   O     0.41145   0.82286   0.59895   0.01267  Uiso   1.00
O324   O     0.40753   0.90850   0.52475   0.01267  Uiso   1.00
O325   O     0.45090   0.96763   0.57722   0.01267  Uiso   1.00
O326   O     0.42135   0.93974   0.64656   0.01267  Uiso   1.00
O327   O     0.45143   0.94246   0.70420   0.01267  Uiso   1.00
O328   O     0.46181   0.03478   0.63332   0.01267  Uiso   1.00
O329   O     0.40307   0.08354   0.68639   0.01267  Uiso   1.00
O330   O     0.33983   0.01417   0.72334   0.01267  Uiso   1.00
O331   O     0.43515   0.94745   0.77472   0.01267  Uiso   1.00
O332   O     0.04750   0.42588   0.95093   0.01267  Uiso   1.00
O333   O     0.96078   0.44877   0.87838   0.01267  Uiso   1.00
O334   O     0.90051   0.40182   0.93221   0.01267  Uiso   1.00
O335   O     0.95934   0.32719   0.96827   0.01267  Uiso   1.00
O336   O     0.03461   0.40688   0.02465   0.01267  Uiso   1.00
O337   O     0.15457   0.35792   0.84537   0.01267  Uiso   1.00
O338   O     0.06431   0.35787   0.77346   0.01267  Uiso   1.00
O339   O     0.02170   0.42208   0.82344   0.01267  Uiso   1.00
O340   O     0.04489   0.39177   0.89485   0.01267  Uiso   1.00
O341   O     0.16810   0.17279   0.81116   0.01267  Uiso   1.00
O342   O     0.07852   0.15868   0.73919   0.01267  Uiso   1.00
O343   O     0.08096   0.26301   0.75015   0.01267  Uiso   1.00
O344   O     0.11057   0.29274   0.82029   0.01267  Uiso   1.00
O345   O     0.23436   0.25220   0.82447   0.01267  Uiso   1.00
O346   O     0.04706   0.03240   0.86189   0.01267  Uiso   1.00
O347   O     0.93415   0.06110   0.81697   0.01267  Uiso   1.00
O348   O     0.00460   0.10488   0.77228   0.01267  Uiso   1.00
O349   O     0.08924   0.14073   0.81394   0.01267  Uiso   1.00
O350   O     0.15078   0.02848   0.83487   0.01267  Uiso   1.00
O351   O     0.95494   0.09237   0.97469   0.01267  Uiso   1.00
O352   O     0.83586   0.13703   0.94065   0.01267  Uiso   1.00
O353   O     0.87788   0.08785   0.87915   0.01267  Uiso   1.00
O354   O     0.98213   0.08163   0.87978   0.01267  Uiso   1.00
O355   O     0.99682   0.00270   0.96742   0.01267  Uiso   1.00
O356   O     0.96571   0.27797   0.01900   0.01267  Uiso   1.00
O357   O     0.85666   0.33006   0.97419   0.01267  Uiso   1.00
O358   O     0.84014   0.22808   0.96858   0.01267  Uiso   1.00
O359   O     0.93239   0.17321   0.96259   0.01267  Uiso   1.00
O360   O     0.05290   0.22089   0.02375   0.01267  Uiso   1.00
O361   O     0.67650   0.97500   0.91330   0.01267  Uiso   1.00
O362   O     0.07390   0.66670   0.15660   0.01267  Uiso   1.00
O363   O     0.50277   0.79681   0.02391   0.01267  Uiso   1.00
O364   O     0.38490   0.82474   0.98188   0.01267  Uiso   1.00
O365   O     0.38637   0.71995   0.98351   0.01267  Uiso   1.00
O366   O     0.48568   0.68426   0.97129   0.01267  Uiso   1.00
O367   O     0.60007   0.75540   0.02972   0.01267  Uiso   1.00
O368   O     0.52993   0.61204   0.97758   0.01267  Uiso   1.00
O369   O     0.40000   0.63015   0.95514   0.01267  Uiso   1.00
O370   O     0.44078   0.58767   0.89093   0.01267  Uiso   1.00
O371   O     0.54241   0.61247   0.88129   0.01267  Uiso   1.00
O372   O     0.60410   0.54601   0.95089   0.01267  Uiso   1.00
O373   O     0.61867   0.58244   0.86399   0.01267  Uiso   1.00
O374   O     0.49877   0.57672   0.82130   0.01267  Uiso   1.00
O375   O     0.55165   0.64457   0.77612   0.01267  Uiso   1.00
O376   O     0.63062   0.69344   0.81015   0.01267  Uiso   1.00
O377   O     0.71455   0.59829   0.83550   0.01267  Uiso   1.00
O378   O     0.70706   0.72922   0.80028   0.01267  Uiso   1.00
O379   O     0.60396   0.71464   0.73958   0.01267  Uiso   1.00
O380   O     0.60709   0.81787   0.74980   0.01267  Uiso   1.00
O381   O     0.64313   0.84358   0.82026   0.01267  Uiso   1.00
O382   O     0.77036   0.80970   0.81021   0.01267  Uiso   1.00
O383   O     0.67714   0.91145   0.84895   0.01267  Uiso   1.00
O384   O     0.59150   0.90753   0.77475   0.01267  Uiso   1.00
O385   O     0.53237   0.95090   0.82722   0.01267  Uiso   1.00
O386   O     0.56026   0.92135   0.89656   0.01267  Uiso   1.00
O387   O     0.55754   0.95143   0.95420   0.01267  Uiso   1.00
O388   O     0.46522   0.96181   0.88332   0.01267  Uiso   1.00
O389   O     0.41646   0.90307   0.93639   0.01267  Uiso   1.00
O390   O     0.48583   0.83983   0.97334   0.01267  Uiso   1.00
O391   O     0.55255   0.93515   0.02472   0.01267  Uiso   1.00
O392   O     0.07412   0.54750   0.20093   0.01267  Uiso   1.00
O393   O     0.05123   0.46078   0.12838   0.01267  Uiso   1.00
O394   O     0.09818   0.40051   0.18221   0.01267  Uiso   1.00
O395   O     0.17281   0.45934   0.21827   0.01267  Uiso   1.00
O396   O     0.09312   0.53461   0.27465   0.01267  Uiso   1.00
O397   O     0.14208   0.65457   0.09537   0.01267  Uiso   1.00
O398   O     0.14213   0.56431   0.02346   0.01267  Uiso   1.00
O399   O     0.07792   0.52170   0.07344   0.01267  Uiso   1.00
O400   O     0.10823   0.54489   0.14485   0.01267  Uiso   1.00
O401   O     0.32721   0.66810   0.06116   0.01267  Uiso   1.00
O402   O     0.34132   0.57852   0.98919   0.01267  Uiso   1.00
O403   O     0.23699   0.58096   0.00015   0.01267  Uiso   1.00
O404   O     0.20726   0.61057   0.07029   0.01267  Uiso   1.00
O405   O     0.24780   0.73436   0.07447   0.01267  Uiso   1.00
O406   O     0.46760   0.54706   0.11189   0.01267  Uiso   1.00
O407   O     0.43890   0.43415   0.06697   0.01267  Uiso   1.00
O408   O     0.39512   0.50460   0.02228   0.01267  Uiso   1.00
O409   O     0.35927   0.58924   0.06394   0.01267  Uiso   1.00
O410   O     0.47152   0.65078   0.08487   0.01267  Uiso   1.00
O411   O     0.40763   0.45494   0.22469   0.01267  Uiso   1.00
O412   O     0.36297   0.33586   0.19065   0.01267  Uiso   1.00
O413   O     0.41215   0.37788   0.12915   0.01267  Uiso   1.00
O414   O     0.41837   0.48213   0.12978   0.01267  Uiso   1.00
O415   O     0.49730   0.49682   0.21742   0.01267  Uiso   1.00
O416   O     0.22203   0.46571   0.26900   0.01267  Uiso   1.00
O417   O     0.16994   0.35666   0.22419   0.01267  Uiso   1.00
O418   O     0.27192   0.34014   0.21858   0.01267  Uiso   1.00
O419   O     0.32679   0.43239   0.21259   0.01267  Uiso   1.00
O420   O     0.27911   0.55290   0.27375   0.01267  Uiso   1.00
O421   O     0.32350   0.02500   0.41330   0.01267  Uiso   1.00
O422   O     0.92610   0.33330   0.65660   0.01267  Uiso   1.00
O423   O     0.49723   0.20319   0.52391   0.01267  Uiso   1.00
O424   O     0.61510   0.17526   0.48188   0.01267  Uiso   1.00
O425   O     0.61363   0.28005   0.48351   0.01267  Uiso   1.00
O426   O     0.51432   0.31574   0.47129   0.01267  Uiso   1.00
O427   O     0.39993   0.24460   0.52972   0.01267  Uiso   1.00
O428   O     0.47007   0.38796   0.47758   0.01267  Uiso   1.00
O429   O     0.60000   0.36985   0.45514   0.01267  Uiso   1.00
O430   O     0.55922   0.41233   0.39093   0.01267  Uiso   1.00
O431   O     0.45759   0.38753   0.38129   0.01267  Uiso   1.00
O432   O     0.39590   0.45399   0.45089   0.01267  Uiso   1.00
O433   O     0.38133   0.41756   0.36399   0.01267  Uiso   1.00
O434   O     0.50123   0.42328   0.32130   0.01267  Uiso   1.00
O435   O     0.44835   0.35543   0.27612   0.01267  Uiso   1.00
O436   O     0.36938   0.30656   0.31015   0.01267  Uiso   1.00
O437   O     0.28545   0.40171   0.33550   0.01267  Uiso   1.00
O438   O     0.29294   0.27078   0.30028   0.01267  Uiso   1.00
O439   O     0.39604   0.28536   0.23958   0.01267  Uiso   1.00
O440   O     0.39291   0.18213   0.24980   0.01267  Uiso   1.00
O441   O     0.35687   0.15642   0.32026   0.01267  Uiso   1.00
O442   O     0.22964   0.19030   0.31021   0.01267  Uiso   1.00
O443   O     0.32286   0.08855   0.34895   0.01267  Uiso   1.00
O444   O     0.40850   0.09247   0.27475   0.01267  Uiso   1.00
O445   O     0.46763   0.04910   0.32722   0.01267  Uiso   1.00
O446   O     0.43974   0.07865   0.39656   0.01267  Uiso   1.00
O447   O     0.44246   0.04857   0.45420   0.01267  Uiso   1.00
O448   O     0.53478   0.03819   0.38332   0.01267  Uiso   1.00
O449   O     0.58354   0.09693   0.43639   0.01267  Uiso   1.00
O450   O     0.51417   0.16017   0.47334   0.01267  Uiso   1.00
O451   O     0.44745   0.06485   0.52472   0.01267  Uiso   1.00
O452   O     0.92588   0.45250   0.70093   0.01267  Uiso   1.00
O453   O     0.94877   0.53922   0.62838   0.01267  Uiso   1.00
O454   O     0.90182   0.59949   0.68221   0.01267  Uiso   1.00
O455   O     0.82719   0.54066   0.71827   0.01267  Uiso   1.00
O456   O     0.90688   0.46539   0.77465   0.01267  Uiso   1.00
O457   O     0.85792   0.34543   0.59537   0.01267  Uiso   1.00
O458   O     0.85787   0.43569   0.52346   0.01267  Uiso   1.00
O459   O     0.92208   0.47830   0.57344   0.01267  Uiso   1.00
O460   O     0.89177   0.45511   0.64485   0.01267  Uiso   1.00
O461   O     0.67279   0.33190   0.56116   0.01267  Uiso   1.00
O462   O     0.65868   0.42148   0.48919   0.01267  Uiso   1.00
O463   O     0.76301   0.41904   0.50015   0.01267  Uiso   1.00
O464   O     0.79274   0.38943   0.57029   0.01267  Uiso   1.00
O465   O     0.75220   0.26564   0.57447   0.01267  Uiso   1.00
O466   O     0.53240   0.45294   0.61189   0.01267  Uiso   1.00
O467   O     0.56110   0.56585   0.56697   0.01267  Uiso   1.00
O468   O     0.60488   0.49540   0.52228   0.01267  Uiso   1.00
O469   O     0.64073   0.41076   0.56394   0.01267  Uiso   1.00
O470   O     0.52848   0.34922   0.58487   0.01267  Uiso   1.00
O471   O     0.59237   0.54506   0.72469   0.01267  Uiso   1.00
O472   O     0.63703   0.66414   0.69065   0.01267  Uiso   1.00
O473   O     0.58785   0.62212   0.62915   0.01267  Uiso   1.00
O474   O     0.58163   0.51787   0.62978   0.01267  Uiso   1.00
O475   O     0.50270   0.50318   0.71742   0.01267  Uiso   1.00
O476   O     0.77797   0.53429   0.76900   0.01267  Uiso   1.00
O477   O     0.83006   0.64334   0.72419   0.01267  Uiso   1.00
O478   O     0.72808   0.65986   0.71858   0.01267  Uiso   1.00
O479   O     0.67321   0.56761   0.71259   0.01267  Uiso   1.00
O480   O     0.72089   0.44710   0.77375   0.01267  Uiso   1.00
