data_NAYKAB_charged
_audit_creation_date              2014-07-02
_audit_creation_method            'Materials Studio'
_symmetry_space_group_name_H-M    'P1'
_symmetry_Int_Tables_number       1
_symmetry_cell_setting            triclinic
loop_
_symmetry_equiv_pos_as_xyz
  x,y,z
_cell_length_a                    18.9670
_cell_length_b                    18.9670
_cell_length_c                    33.4307
_cell_angle_alpha                 73.5202
_cell_angle_beta                  73.5202
_cell_angle_gamma                 90.0000
loop_
_atom_site_label
_atom_site_type_symbol
_atom_site_fract_x
_atom_site_fract_y
_atom_site_fract_z
_atom_site_U_iso_or_equiv
_atom_site_adp_type
_atom_site_occupancy
Cd1    Cd    0.44932   0.40104   0.65668   0.01267  Uiso   1.00
Cd2    Cd    0.39400   0.94228   0.65668   0.01267  Uiso   1.00
Cd3    Cd    0.40104   0.39400   0.15668   0.01267  Uiso   1.00
Cd4    Cd    0.94228   0.44932   0.15668   0.01267  Uiso   1.00
Cd5    Cd    0.55068   0.59896   0.34332   0.01267  Uiso   1.00
Cd6    Cd    0.60600   0.05772   0.34332   0.01267  Uiso   1.00
Cd7    Cd    0.59896   0.60600   0.84332   0.01267  Uiso   1.00
Cd8    Cd    0.05772   0.55068   0.84332   0.01267  Uiso   1.00
Fe1    Fe    0.32302   0.02448   0.02472   0.01267  Uiso   1.00
Fe2    Fe    0.15226   0.95080   0.02472   0.01267  Uiso   1.00
Fe3    Fe    0.02448   0.15226   0.52472   0.01267  Uiso   1.00
Fe4    Fe    0.95080   0.32302   0.52472   0.01267  Uiso   1.00
Fe5    Fe    0.67698   0.97552   0.97528   0.01267  Uiso   1.00
Fe6    Fe    0.84774   0.04920   0.97528   0.01267  Uiso   1.00
Fe7    Fe    0.97552   0.84774   0.47528   0.01267  Uiso   1.00
Fe8    Fe    0.04920   0.67698   0.47528   0.01267  Uiso   1.00
H1     H     0.44110   0.08450   0.85920   0.01267  Uiso   1.00
H2     H     0.47710   0.95990   0.88900   0.01267  Uiso   1.00
H3     H     0.47730   0.79930   0.04820   0.01267  Uiso   1.00
H4     H     0.41770   0.80330   0.12280   0.01267  Uiso   1.00
H5     H     0.23500   0.97940   0.19160   0.01267  Uiso   1.00
H6     H     0.19300   0.09930   0.16200   0.01267  Uiso   1.00
H7     H     0.24620   0.28860   0.00340   0.01267  Uiso   1.00
H8     H     0.31040   0.28670   0.92960   0.01267  Uiso   1.00
H9     H     0.47760   0.25360   0.87220   0.01267  Uiso   1.00
H10    H     0.50020   0.32740   0.79940   0.01267  Uiso   1.00
H11    H     0.30000   0.25410   0.80480   0.01267  Uiso   1.00
H12    H     0.28880   0.17480   0.87200   0.01267  Uiso   1.00
H13    H     0.57820   0.90890   0.92620   0.01267  Uiso   1.00
H14    H     0.62550   0.82030   0.89340   0.01267  Uiso   1.00
H15    H     0.44270   0.68320   0.96160   0.01267  Uiso   1.00
H16    H     0.38980   0.77120   0.99440   0.01267  Uiso   1.00
H17    H     0.27710   0.27920   0.09040   0.01267  Uiso   1.00
H18    H     0.19680   0.36380   0.11360   0.01267  Uiso   1.00
H19    H     0.02280   0.24070   0.11280   0.01267  Uiso   1.00
H20    H     0.10140   0.15890   0.08920   0.01267  Uiso   1.00
H21    H     0.26520   0.78200   0.16680   0.01267  Uiso   1.00
H22    H     0.26680   0.69550   0.23060   0.01267  Uiso   1.00
H23    H     0.38110   0.84380   0.25820   0.01267  Uiso   1.00
H24    H     0.37750   0.93510   0.19400   0.01267  Uiso   1.00
H25    H     0.19970   0.05630   0.85920   0.01267  Uiso   1.00
H26    H     0.13390   0.15110   0.88900   0.01267  Uiso   1.00
H27    H     0.97450   0.15250   0.04820   0.01267  Uiso   1.00
H28    H     0.95950   0.07390   0.12280   0.01267  Uiso   1.00
H29    H     0.07340   0.82900   0.19160   0.01267  Uiso   1.00
H30    H     0.14500   0.73870   0.16200   0.01267  Uiso   1.00
H31    H     0.25040   0.70800   0.00340   0.01267  Uiso   1.00
H32    H     0.26000   0.78370   0.92960   0.01267  Uiso   1.00
H33    H     0.15020   0.87420   0.87220   0.01267  Uiso   1.00
H34    H     0.20040   0.87320   0.79940   0.01267  Uiso   1.00
H35    H     0.39520   0.94110   0.80480   0.01267  Uiso   1.00
H36    H     0.33920   0.95320   0.87200   0.01267  Uiso   1.00
H37    H     0.99560   0.16490   0.92620   0.01267  Uiso   1.00
H38    H     0.98110   0.28630   0.89340   0.01267  Uiso   1.00
H39    H     0.09570   0.35520   0.96160   0.01267  Uiso   1.00
H40    H     0.11580   0.23440   0.99440   0.01267  Uiso   1.00
H41    H     0.13250   0.63040   0.09040   0.01267  Uiso   1.00
H42    H     0.18960   0.52260   0.11360   0.01267  Uiso   1.00
H43    H     0.36440   0.64650   0.11280   0.01267  Uiso   1.00
H44    H     0.30940   0.75190   0.08920   0.01267  Uiso   1.00
H45    H     0.06800   0.05120   0.16680   0.01267  Uiso   1.00
H46    H     0.00260   0.07390   0.23060   0.01267  Uiso   1.00
H47    H     0.86070   0.89800   0.25820   0.01267  Uiso   1.00
H48    H     0.92850   0.87090   0.19400   0.01267  Uiso   1.00
H49    H     0.08450   0.19970   0.35920   0.01267  Uiso   1.00
H50    H     0.95990   0.13390   0.38900   0.01267  Uiso   1.00
H51    H     0.79930   0.97450   0.54820   0.01267  Uiso   1.00
H52    H     0.80330   0.95950   0.62280   0.01267  Uiso   1.00
H53    H     0.97940   0.07340   0.69160   0.01267  Uiso   1.00
H54    H     0.09930   0.14500   0.66200   0.01267  Uiso   1.00
H55    H     0.28860   0.25040   0.50340   0.01267  Uiso   1.00
H56    H     0.28670   0.26000   0.42960   0.01267  Uiso   1.00
H57    H     0.25360   0.15020   0.37220   0.01267  Uiso   1.00
H58    H     0.32740   0.20040   0.29940   0.01267  Uiso   1.00
H59    H     0.25410   0.39520   0.30480   0.01267  Uiso   1.00
H60    H     0.17480   0.33920   0.37200   0.01267  Uiso   1.00
H61    H     0.90890   0.99560   0.42620   0.01267  Uiso   1.00
H62    H     0.82030   0.98110   0.39340   0.01267  Uiso   1.00
H63    H     0.68320   0.09570   0.46160   0.01267  Uiso   1.00
H64    H     0.77120   0.11580   0.49440   0.01267  Uiso   1.00
H65    H     0.27920   0.13250   0.59040   0.01267  Uiso   1.00
H66    H     0.36380   0.18960   0.61360   0.01267  Uiso   1.00
H67    H     0.24070   0.36440   0.61280   0.01267  Uiso   1.00
H68    H     0.15890   0.30940   0.58920   0.01267  Uiso   1.00
H69    H     0.78200   0.06800   0.66680   0.01267  Uiso   1.00
H70    H     0.69550   0.00260   0.73060   0.01267  Uiso   1.00
H71    H     0.84380   0.86070   0.75820   0.01267  Uiso   1.00
H72    H     0.93510   0.92850   0.69400   0.01267  Uiso   1.00
H73    H     0.05630   0.44110   0.35920   0.01267  Uiso   1.00
H74    H     0.15110   0.47710   0.38900   0.01267  Uiso   1.00
H75    H     0.15250   0.47730   0.54820   0.01267  Uiso   1.00
H76    H     0.07390   0.41770   0.62280   0.01267  Uiso   1.00
H77    H     0.82900   0.23500   0.69160   0.01267  Uiso   1.00
H78    H     0.73870   0.19300   0.66200   0.01267  Uiso   1.00
H79    H     0.70800   0.24620   0.50340   0.01267  Uiso   1.00
H80    H     0.78370   0.31040   0.42960   0.01267  Uiso   1.00
H81    H     0.87420   0.47760   0.37220   0.01267  Uiso   1.00
H82    H     0.87320   0.50020   0.29940   0.01267  Uiso   1.00
H83    H     0.94110   0.30000   0.30480   0.01267  Uiso   1.00
H84    H     0.95320   0.28880   0.37200   0.01267  Uiso   1.00
H85    H     0.16490   0.57820   0.42620   0.01267  Uiso   1.00
H86    H     0.28630   0.62550   0.39340   0.01267  Uiso   1.00
H87    H     0.35520   0.44270   0.46160   0.01267  Uiso   1.00
H88    H     0.23440   0.38980   0.49440   0.01267  Uiso   1.00
H89    H     0.63040   0.27710   0.59040   0.01267  Uiso   1.00
H90    H     0.52260   0.19680   0.61360   0.01267  Uiso   1.00
H91    H     0.64650   0.02280   0.61280   0.01267  Uiso   1.00
H92    H     0.75190   0.10140   0.58920   0.01267  Uiso   1.00
H93    H     0.05120   0.26520   0.66680   0.01267  Uiso   1.00
H94    H     0.07390   0.26680   0.73060   0.01267  Uiso   1.00
H95    H     0.89800   0.38110   0.75820   0.01267  Uiso   1.00
H96    H     0.87090   0.37750   0.69400   0.01267  Uiso   1.00
H97    H     0.55890   0.91550   0.14080   0.01267  Uiso   1.00
H98    H     0.52290   0.04010   0.11100   0.01267  Uiso   1.00
H99    H     0.52270   0.20070   0.95180   0.01267  Uiso   1.00
H100   H     0.58230   0.19670   0.87720   0.01267  Uiso   1.00
H101   H     0.76500   0.02060   0.80840   0.01267  Uiso   1.00
H102   H     0.80700   0.90070   0.83800   0.01267  Uiso   1.00
H103   H     0.75380   0.71140   0.99660   0.01267  Uiso   1.00
H104   H     0.68960   0.71330   0.07040   0.01267  Uiso   1.00
H105   H     0.52240   0.74640   0.12780   0.01267  Uiso   1.00
H106   H     0.49980   0.67260   0.20060   0.01267  Uiso   1.00
H107   H     0.70000   0.74590   0.19520   0.01267  Uiso   1.00
H108   H     0.71120   0.82520   0.12800   0.01267  Uiso   1.00
H109   H     0.42180   0.09110   0.07380   0.01267  Uiso   1.00
H110   H     0.37450   0.17970   0.10660   0.01267  Uiso   1.00
H111   H     0.55730   0.31680   0.03840   0.01267  Uiso   1.00
H112   H     0.61020   0.22880   0.00560   0.01267  Uiso   1.00
H113   H     0.72290   0.72080   0.90960   0.01267  Uiso   1.00
H114   H     0.80320   0.63620   0.88640   0.01267  Uiso   1.00
H115   H     0.97720   0.75930   0.88720   0.01267  Uiso   1.00
H116   H     0.89860   0.84110   0.91080   0.01267  Uiso   1.00
H117   H     0.73480   0.21800   0.83320   0.01267  Uiso   1.00
H118   H     0.73320   0.30450   0.76940   0.01267  Uiso   1.00
H119   H     0.61890   0.15620   0.74180   0.01267  Uiso   1.00
H120   H     0.62250   0.06490   0.80600   0.01267  Uiso   1.00
H121   H     0.80030   0.94370   0.14080   0.01267  Uiso   1.00
H122   H     0.86610   0.84890   0.11100   0.01267  Uiso   1.00
H123   H     0.02550   0.84750   0.95180   0.01267  Uiso   1.00
H124   H     0.04050   0.92610   0.87720   0.01267  Uiso   1.00
H125   H     0.92660   0.17100   0.80840   0.01267  Uiso   1.00
H126   H     0.85500   0.26130   0.83800   0.01267  Uiso   1.00
H127   H     0.74960   0.29200   0.99660   0.01267  Uiso   1.00
H128   H     0.74000   0.21630   0.07040   0.01267  Uiso   1.00
H129   H     0.84980   0.12580   0.12780   0.01267  Uiso   1.00
H130   H     0.79960   0.12680   0.20060   0.01267  Uiso   1.00
H131   H     0.60480   0.05890   0.19520   0.01267  Uiso   1.00
H132   H     0.66080   0.04680   0.12800   0.01267  Uiso   1.00
H133   H     0.00440   0.83510   0.07380   0.01267  Uiso   1.00
H134   H     0.01890   0.71370   0.10660   0.01267  Uiso   1.00
H135   H     0.90430   0.64480   0.03840   0.01267  Uiso   1.00
H136   H     0.88420   0.76560   0.00560   0.01267  Uiso   1.00
H137   H     0.86750   0.36960   0.90960   0.01267  Uiso   1.00
H138   H     0.81040   0.47740   0.88640   0.01267  Uiso   1.00
H139   H     0.63560   0.35350   0.88720   0.01267  Uiso   1.00
H140   H     0.69060   0.24810   0.91080   0.01267  Uiso   1.00
H141   H     0.93200   0.94880   0.83320   0.01267  Uiso   1.00
H142   H     0.99740   0.92610   0.76940   0.01267  Uiso   1.00
H143   H     0.13930   0.10200   0.74180   0.01267  Uiso   1.00
H144   H     0.07150   0.12910   0.80600   0.01267  Uiso   1.00
H145   H     0.91550   0.80030   0.64080   0.01267  Uiso   1.00
H146   H     0.04010   0.86610   0.61100   0.01267  Uiso   1.00
H147   H     0.20070   0.02550   0.45180   0.01267  Uiso   1.00
H148   H     0.19670   0.04050   0.37720   0.01267  Uiso   1.00
H149   H     0.02060   0.92660   0.30840   0.01267  Uiso   1.00
H150   H     0.90070   0.85500   0.33800   0.01267  Uiso   1.00
H151   H     0.71140   0.74960   0.49660   0.01267  Uiso   1.00
H152   H     0.71330   0.74000   0.57040   0.01267  Uiso   1.00
H153   H     0.74640   0.84980   0.62780   0.01267  Uiso   1.00
H154   H     0.67260   0.79960   0.70060   0.01267  Uiso   1.00
H155   H     0.74590   0.60480   0.69520   0.01267  Uiso   1.00
H156   H     0.82520   0.66080   0.62800   0.01267  Uiso   1.00
H157   H     0.09110   0.00440   0.57380   0.01267  Uiso   1.00
H158   H     0.17970   0.01890   0.60660   0.01267  Uiso   1.00
H159   H     0.31680   0.90430   0.53840   0.01267  Uiso   1.00
H160   H     0.22880   0.88420   0.50560   0.01267  Uiso   1.00
H161   H     0.72080   0.86750   0.40960   0.01267  Uiso   1.00
H162   H     0.63620   0.81040   0.38640   0.01267  Uiso   1.00
H163   H     0.75930   0.63560   0.38720   0.01267  Uiso   1.00
H164   H     0.84110   0.69060   0.41080   0.01267  Uiso   1.00
H165   H     0.21800   0.93200   0.33320   0.01267  Uiso   1.00
H166   H     0.30450   0.99740   0.26940   0.01267  Uiso   1.00
H167   H     0.15620   0.13930   0.24180   0.01267  Uiso   1.00
H168   H     0.06490   0.07150   0.30600   0.01267  Uiso   1.00
H169   H     0.94370   0.55890   0.64080   0.01267  Uiso   1.00
H170   H     0.84890   0.52290   0.61100   0.01267  Uiso   1.00
H171   H     0.84750   0.52270   0.45180   0.01267  Uiso   1.00
H172   H     0.92610   0.58230   0.37720   0.01267  Uiso   1.00
H173   H     0.17100   0.76500   0.30840   0.01267  Uiso   1.00
H174   H     0.26130   0.80700   0.33800   0.01267  Uiso   1.00
H175   H     0.29200   0.75380   0.49660   0.01267  Uiso   1.00
H176   H     0.21630   0.68960   0.57040   0.01267  Uiso   1.00
H177   H     0.12580   0.52240   0.62780   0.01267  Uiso   1.00
H178   H     0.12680   0.49980   0.70060   0.01267  Uiso   1.00
H179   H     0.05890   0.70000   0.69520   0.01267  Uiso   1.00
H180   H     0.04680   0.71120   0.62800   0.01267  Uiso   1.00
H181   H     0.83510   0.42180   0.57380   0.01267  Uiso   1.00
H182   H     0.71370   0.37450   0.60660   0.01267  Uiso   1.00
H183   H     0.64480   0.55730   0.53840   0.01267  Uiso   1.00
H184   H     0.76560   0.61020   0.50560   0.01267  Uiso   1.00
H185   H     0.36960   0.72290   0.40960   0.01267  Uiso   1.00
H186   H     0.47740   0.80320   0.38640   0.01267  Uiso   1.00
H187   H     0.35350   0.97720   0.38720   0.01267  Uiso   1.00
H188   H     0.24810   0.89860   0.41080   0.01267  Uiso   1.00
H189   H     0.94880   0.73480   0.33320   0.01267  Uiso   1.00
H190   H     0.92610   0.73320   0.26940   0.01267  Uiso   1.00
H191   H     0.10200   0.61890   0.24180   0.01267  Uiso   1.00
H192   H     0.12910   0.62250   0.30600   0.01267  Uiso   1.00
C1     C     0.37290   0.15280   0.92340   0.01267  Uiso   1.00
C2     C     0.40010   0.08320   0.92600   0.01267  Uiso   1.00
C3     C     0.43370   0.05840   0.88920   0.01267  Uiso   1.00
C4     C     0.45280   0.99090   0.90560   0.01267  Uiso   1.00
C5     C     0.43030   0.97370   0.95200   0.01267  Uiso   1.00
C6     C     0.44260   0.90900   0.98100   0.01267  Uiso   1.00
C7     C     0.42340   0.89370   0.02680   0.01267  Uiso   1.00
C8     C     0.44520   0.83480   0.05600   0.01267  Uiso   1.00
C9     C     0.41310   0.83670   0.09680   0.01267  Uiso   1.00
C10    C     0.36950   0.90110   0.09300   0.01267  Uiso   1.00
C11    C     0.32700   0.92000   0.12920   0.01267  Uiso   1.00
C12    C     0.29060   0.98230   0.12600   0.01267  Uiso   1.00
C13    C     0.24610   0.00600   0.16160   0.01267  Uiso   1.00
C14    C     0.22310   0.07110   0.14560   0.01267  Uiso   1.00
C15    C     0.25240   0.09110   0.09840   0.01267  Uiso   1.00
C16    C     0.24550   0.15760   0.07020   0.01267  Uiso   1.00
C17    C     0.27790   0.18180   0.02560   0.01267  Uiso   1.00
C18    C     0.27150   0.24880   0.99580   0.01267  Uiso   1.00
C19    C     0.30580   0.24810   0.95580   0.01267  Uiso   1.00
C20    C     0.33460   0.17850   0.95960   0.01267  Uiso   1.00
C21    C     0.38210   0.20240   0.87800   0.01267  Uiso   1.00
C22    C     0.44300   0.25000   0.85700   0.01267  Uiso   1.00
C23    C     0.45710   0.29420   0.81380   0.01267  Uiso   1.00
C24    C     0.40470   0.28690   0.79300   0.01267  Uiso   1.00
C25    C     0.34060   0.24990   0.81640   0.01267  Uiso   1.00
C26    C     0.33330   0.20580   0.85740   0.01267  Uiso   1.00
C27    C     0.42390   0.33200   0.74120   0.01267  Uiso   1.00
C28    C     0.47670   0.84950   0.96260   0.01267  Uiso   1.00
C29    C     0.54980   0.86370   0.93260   0.01267  Uiso   1.00
C30    C     0.57750   0.81120   0.91360   0.01267  Uiso   1.00
C31    C     0.53670   0.74390   0.92340   0.01267  Uiso   1.00
C32    C     0.46900   0.73000   0.95380   0.01267  Uiso   1.00
C33    C     0.43740   0.78180   0.97360   0.01267  Uiso   1.00
C34    C     0.56850   0.69110   0.89740   0.01267  Uiso   1.00
C35    C     0.19490   0.21050   0.08740   0.01267  Uiso   1.00
C36    C     0.22570   0.27220   0.09460   0.01267  Uiso   1.00
C37    C     0.17800   0.32190   0.10840   0.01267  Uiso   1.00
C38    C     0.10430   0.31070   0.11440   0.01267  Uiso   1.00
C39    C     0.07440   0.24870   0.10780   0.01267  Uiso   1.00
C40    C     0.12090   0.20070   0.09420   0.01267  Uiso   1.00
C41    C     0.05250   0.36880   0.12760   0.01267  Uiso   1.00
C42    C     0.32260   0.86580   0.17340   0.01267  Uiso   1.00
C43    C     0.28980   0.79480   0.18520   0.01267  Uiso   1.00
C44    C     0.29200   0.74300   0.22240   0.01267  Uiso   1.00
C45    C     0.33100   0.75960   0.24800   0.01267  Uiso   1.00
C46    C     0.35920   0.83110   0.23860   0.01267  Uiso   1.00
C47    C     0.35670   0.88610   0.20060   0.01267  Uiso   1.00
C48    C     0.34020   0.69930   0.28680   0.01267  Uiso   1.00
C49    C     0.20370   0.92380   0.92340   0.01267  Uiso   1.00
C50    C     0.17390   0.99080   0.92600   0.01267  Uiso   1.00
C51    C     0.17710   0.05240   0.88920   0.01267  Uiso   1.00
C52    C     0.14160   0.10350   0.90560   0.01267  Uiso   1.00
C53    C     0.11770   0.07430   0.95200   0.01267  Uiso   1.00
C54    C     0.07640   0.11000   0.98100   0.01267  Uiso   1.00
C55    C     0.04980   0.07950   0.02680   0.01267  Uiso   1.00
C56    C     0.99880   0.10920   0.05600   0.01267  Uiso   1.00
C57    C     0.99010   0.06650   0.09680   0.01267  Uiso   1.00
C58    C     0.03750   0.00590   0.09300   0.01267  Uiso   1.00
C59    C     0.04380   0.95080   0.12920   0.01267  Uiso   1.00
C60    C     0.08340   0.89170   0.12600   0.01267  Uiso   1.00
C61    C     0.09230   0.83240   0.16160   0.01267  Uiso   1.00
C62    C     0.13130   0.78330   0.14560   0.01267  Uiso   1.00
C63    C     0.14920   0.81050   0.09840   0.01267  Uiso   1.00
C64    C     0.18430   0.77220   0.07020   0.01267  Uiso   1.00
C65    C     0.19650   0.79260   0.02560   0.01267  Uiso   1.00
C66    C     0.23270   0.75540   0.99580   0.01267  Uiso   1.00
C67    C     0.23840   0.79610   0.95580   0.01267  Uiso   1.00
C68    C     0.20580   0.86190   0.95960   0.01267  Uiso   1.00
C69    C     0.23990   0.91960   0.87800   0.01267  Uiso   1.00
C70    C     0.20000   0.89300   0.85700   0.01267  Uiso   1.00
C71    C     0.22910   0.89200   0.81380   0.01267  Uiso   1.00
C72    C     0.30230   0.92010   0.79300   0.01267  Uiso   1.00
C73    C     0.34300   0.93370   0.81640   0.01267  Uiso   1.00
C74    C     0.30930   0.93680   0.85740   0.01267  Uiso   1.00
C75    C     0.33490   0.92680   0.74120   0.01267  Uiso   1.00
C76    C     0.06070   0.18790   0.96260   0.01267  Uiso   1.00
C77    C     0.01760   0.20370   0.93260   0.01267  Uiso   1.00
C78    C     0.00890   0.27520   0.91360   0.01267  Uiso   1.00
C79    C     0.03990   0.33270   0.92340   0.01267  Uiso   1.00
C80    C     0.07720   0.31620   0.95380   0.01267  Uiso   1.00
C81    C     0.08900   0.24460   0.97360   0.01267  Uiso   1.00
C82    C     0.03410   0.41150   0.89740   0.01267  Uiso   1.00
C83    C     0.21770   0.70210   0.08740   0.01267  Uiso   1.00
C84    C     0.17970   0.63320   0.09460   0.01267  Uiso   1.00
C85    C     0.21360   0.56970   0.10840   0.01267  Uiso   1.00
C86    C     0.28130   0.57490   0.11440   0.01267  Uiso   1.00
C87    C     0.31780   0.64350   0.10780   0.01267  Uiso   1.00
C88    C     0.28490   0.70510   0.09420   0.01267  Uiso   1.00
C89    C     0.31990   0.50360   0.12760   0.01267  Uiso   1.00
C90    C     0.00400   0.96080   0.17340   0.01267  Uiso   1.00
C91    C     0.02500   0.02000   0.18520   0.01267  Uiso   1.00
C92    C     0.98560   0.03460   0.22240   0.01267  Uiso   1.00
C93    C     0.92100   0.99240   0.24800   0.01267  Uiso   1.00
C94    C     0.90220   0.93030   0.23860   0.01267  Uiso   1.00
C95    C     0.94270   0.91330   0.20060   0.01267  Uiso   1.00
C96    C     0.87300   0.01390   0.28680   0.01267  Uiso   1.00
C97    C     0.15280   0.20370   0.42340   0.01267  Uiso   1.00
C98    C     0.08320   0.17390   0.42600   0.01267  Uiso   1.00
C99    C     0.05840   0.17710   0.38920   0.01267  Uiso   1.00
C100   C     0.99090   0.14160   0.40560   0.01267  Uiso   1.00
C101   C     0.97370   0.11770   0.45200   0.01267  Uiso   1.00
C102   C     0.90900   0.07640   0.48100   0.01267  Uiso   1.00
C103   C     0.89370   0.04980   0.52680   0.01267  Uiso   1.00
C104   C     0.83480   0.99880   0.55600   0.01267  Uiso   1.00
C105   C     0.83670   0.99010   0.59680   0.01267  Uiso   1.00
C106   C     0.90110   0.03750   0.59300   0.01267  Uiso   1.00
C107   C     0.92000   0.04380   0.62920   0.01267  Uiso   1.00
C108   C     0.98230   0.08340   0.62600   0.01267  Uiso   1.00
C109   C     0.00600   0.09230   0.66160   0.01267  Uiso   1.00
C110   C     0.07110   0.13130   0.64560   0.01267  Uiso   1.00
C111   C     0.09110   0.14920   0.59840   0.01267  Uiso   1.00
C112   C     0.15760   0.18430   0.57020   0.01267  Uiso   1.00
C113   C     0.18180   0.19650   0.52560   0.01267  Uiso   1.00
C114   C     0.24880   0.23270   0.49580   0.01267  Uiso   1.00
C115   C     0.24810   0.23840   0.45580   0.01267  Uiso   1.00
C116   C     0.17850   0.20580   0.45960   0.01267  Uiso   1.00
C117   C     0.20240   0.23990   0.37800   0.01267  Uiso   1.00
C118   C     0.25000   0.20000   0.35700   0.01267  Uiso   1.00
C119   C     0.29420   0.22910   0.31380   0.01267  Uiso   1.00
C120   C     0.28690   0.30230   0.29300   0.01267  Uiso   1.00
C121   C     0.24990   0.34300   0.31640   0.01267  Uiso   1.00
C122   C     0.20580   0.30930   0.35740   0.01267  Uiso   1.00
C123   C     0.33200   0.33490   0.24120   0.01267  Uiso   1.00
C124   C     0.84950   0.06070   0.46260   0.01267  Uiso   1.00
C125   C     0.86370   0.01760   0.43260   0.01267  Uiso   1.00
C126   C     0.81120   0.00890   0.41360   0.01267  Uiso   1.00
C127   C     0.74390   0.03990   0.42340   0.01267  Uiso   1.00
C128   C     0.73000   0.07720   0.45380   0.01267  Uiso   1.00
C129   C     0.78180   0.08900   0.47360   0.01267  Uiso   1.00
C130   C     0.69110   0.03410   0.39740   0.01267  Uiso   1.00
C131   C     0.21050   0.21770   0.58740   0.01267  Uiso   1.00
C132   C     0.27220   0.17970   0.59460   0.01267  Uiso   1.00
C133   C     0.32190   0.21360   0.60840   0.01267  Uiso   1.00
C134   C     0.31070   0.28130   0.61440   0.01267  Uiso   1.00
C135   C     0.24870   0.31780   0.60780   0.01267  Uiso   1.00
C136   C     0.20070   0.28490   0.59420   0.01267  Uiso   1.00
C137   C     0.36880   0.31990   0.62760   0.01267  Uiso   1.00
C138   C     0.86580   0.00400   0.67340   0.01267  Uiso   1.00
C139   C     0.79480   0.02500   0.68520   0.01267  Uiso   1.00
C140   C     0.74300   0.98560   0.72240   0.01267  Uiso   1.00
C141   C     0.75960   0.92100   0.74800   0.01267  Uiso   1.00
C142   C     0.83110   0.90220   0.73860   0.01267  Uiso   1.00
C143   C     0.88610   0.94270   0.70060   0.01267  Uiso   1.00
C144   C     0.69930   0.87300   0.78680   0.01267  Uiso   1.00
C145   C     0.92380   0.37290   0.42340   0.01267  Uiso   1.00
C146   C     0.99080   0.40010   0.42600   0.01267  Uiso   1.00
C147   C     0.05240   0.43370   0.38920   0.01267  Uiso   1.00
C148   C     0.10350   0.45280   0.40560   0.01267  Uiso   1.00
C149   C     0.07430   0.43030   0.45200   0.01267  Uiso   1.00
C150   C     0.11000   0.44260   0.48100   0.01267  Uiso   1.00
C151   C     0.07950   0.42340   0.52680   0.01267  Uiso   1.00
C152   C     0.10920   0.44520   0.55600   0.01267  Uiso   1.00
C153   C     0.06650   0.41310   0.59680   0.01267  Uiso   1.00
C154   C     0.00590   0.36950   0.59300   0.01267  Uiso   1.00
C155   C     0.95080   0.32700   0.62920   0.01267  Uiso   1.00
C156   C     0.89170   0.29060   0.62600   0.01267  Uiso   1.00
C157   C     0.83240   0.24610   0.66160   0.01267  Uiso   1.00
C158   C     0.78330   0.22310   0.64560   0.01267  Uiso   1.00
C159   C     0.81050   0.25240   0.59840   0.01267  Uiso   1.00
C160   C     0.77220   0.24550   0.57020   0.01267  Uiso   1.00
C161   C     0.79260   0.27790   0.52560   0.01267  Uiso   1.00
C162   C     0.75540   0.27150   0.49580   0.01267  Uiso   1.00
C163   C     0.79610   0.30580   0.45580   0.01267  Uiso   1.00
C164   C     0.86190   0.33460   0.45960   0.01267  Uiso   1.00
C165   C     0.91960   0.38210   0.37800   0.01267  Uiso   1.00
C166   C     0.89300   0.44300   0.35700   0.01267  Uiso   1.00
C167   C     0.89200   0.45710   0.31380   0.01267  Uiso   1.00
C168   C     0.92010   0.40470   0.29300   0.01267  Uiso   1.00
C169   C     0.93370   0.34060   0.31640   0.01267  Uiso   1.00
C170   C     0.93680   0.33330   0.35740   0.01267  Uiso   1.00
C171   C     0.92680   0.42390   0.24120   0.01267  Uiso   1.00
C172   C     0.18790   0.47670   0.46260   0.01267  Uiso   1.00
C173   C     0.20370   0.54980   0.43260   0.01267  Uiso   1.00
C174   C     0.27520   0.57750   0.41360   0.01267  Uiso   1.00
C175   C     0.33270   0.53670   0.42340   0.01267  Uiso   1.00
C176   C     0.31620   0.46900   0.45380   0.01267  Uiso   1.00
C177   C     0.24460   0.43740   0.47360   0.01267  Uiso   1.00
C178   C     0.41150   0.56850   0.39740   0.01267  Uiso   1.00
C179   C     0.70210   0.19490   0.58740   0.01267  Uiso   1.00
C180   C     0.63320   0.22570   0.59460   0.01267  Uiso   1.00
C181   C     0.56970   0.17800   0.60840   0.01267  Uiso   1.00
C182   C     0.57490   0.10430   0.61440   0.01267  Uiso   1.00
C183   C     0.64350   0.07440   0.60780   0.01267  Uiso   1.00
C184   C     0.70510   0.12090   0.59420   0.01267  Uiso   1.00
C185   C     0.50360   0.05250   0.62760   0.01267  Uiso   1.00
C186   C     0.96080   0.32260   0.67340   0.01267  Uiso   1.00
C187   C     0.02000   0.28980   0.68520   0.01267  Uiso   1.00
C188   C     0.03460   0.29200   0.72240   0.01267  Uiso   1.00
C189   C     0.99240   0.33100   0.74800   0.01267  Uiso   1.00
C190   C     0.93030   0.35920   0.73860   0.01267  Uiso   1.00
C191   C     0.91330   0.35670   0.70060   0.01267  Uiso   1.00
C192   C     0.01390   0.34020   0.78680   0.01267  Uiso   1.00
C193   C     0.62710   0.84720   0.07660   0.01267  Uiso   1.00
C194   C     0.59990   0.91680   0.07400   0.01267  Uiso   1.00
C195   C     0.56630   0.94160   0.11080   0.01267  Uiso   1.00
C196   C     0.54720   0.00910   0.09440   0.01267  Uiso   1.00
C197   C     0.56970   0.02630   0.04800   0.01267  Uiso   1.00
C198   C     0.55740   0.09100   0.01900   0.01267  Uiso   1.00
C199   C     0.57660   0.10630   0.97320   0.01267  Uiso   1.00
C200   C     0.55480   0.16520   0.94400   0.01267  Uiso   1.00
C201   C     0.58690   0.16330   0.90320   0.01267  Uiso   1.00
C202   C     0.63050   0.09890   0.90700   0.01267  Uiso   1.00
C203   C     0.67300   0.08000   0.87080   0.01267  Uiso   1.00
C204   C     0.70940   0.01770   0.87400   0.01267  Uiso   1.00
C205   C     0.75390   0.99400   0.83840   0.01267  Uiso   1.00
C206   C     0.77690   0.92890   0.85440   0.01267  Uiso   1.00
C207   C     0.74760   0.90890   0.90160   0.01267  Uiso   1.00
C208   C     0.75450   0.84240   0.92980   0.01267  Uiso   1.00
C209   C     0.72210   0.81820   0.97440   0.01267  Uiso   1.00
C210   C     0.72850   0.75120   0.00420   0.01267  Uiso   1.00
C211   C     0.69420   0.75190   0.04420   0.01267  Uiso   1.00
C212   C     0.66540   0.82150   0.04040   0.01267  Uiso   1.00
C213   C     0.61790   0.79760   0.12200   0.01267  Uiso   1.00
C214   C     0.55700   0.75000   0.14300   0.01267  Uiso   1.00
C215   C     0.54290   0.70580   0.18620   0.01267  Uiso   1.00
C216   C     0.59530   0.71310   0.20700   0.01267  Uiso   1.00
C217   C     0.65940   0.75010   0.18360   0.01267  Uiso   1.00
C218   C     0.66670   0.79420   0.14260   0.01267  Uiso   1.00
C219   C     0.57610   0.66800   0.25880   0.01267  Uiso   1.00
C220   C     0.52330   0.15050   0.03740   0.01267  Uiso   1.00
C221   C     0.45020   0.13630   0.06740   0.01267  Uiso   1.00
C222   C     0.42250   0.18880   0.08640   0.01267  Uiso   1.00
C223   C     0.46330   0.25610   0.07660   0.01267  Uiso   1.00
C224   C     0.53100   0.27000   0.04620   0.01267  Uiso   1.00
C225   C     0.56260   0.21820   0.02640   0.01267  Uiso   1.00
C226   C     0.43150   0.30890   0.10260   0.01267  Uiso   1.00
C227   C     0.80510   0.78950   0.91260   0.01267  Uiso   1.00
C228   C     0.77430   0.72780   0.90540   0.01267  Uiso   1.00
C229   C     0.82200   0.67810   0.89160   0.01267  Uiso   1.00
C230   C     0.89570   0.68930   0.88560   0.01267  Uiso   1.00
C231   C     0.92560   0.75130   0.89220   0.01267  Uiso   1.00
C232   C     0.87910   0.79930   0.90580   0.01267  Uiso   1.00
C233   C     0.94750   0.63120   0.87240   0.01267  Uiso   1.00
C234   C     0.67740   0.13420   0.82660   0.01267  Uiso   1.00
C235   C     0.71020   0.20520   0.81480   0.01267  Uiso   1.00
C236   C     0.70800   0.25700   0.77760   0.01267  Uiso   1.00
C237   C     0.66900   0.24040   0.75200   0.01267  Uiso   1.00
C238   C     0.64080   0.16890   0.76140   0.01267  Uiso   1.00
C239   C     0.64330   0.11390   0.79940   0.01267  Uiso   1.00
C240   C     0.65980   0.30070   0.71320   0.01267  Uiso   1.00
C241   C     0.79630   0.07620   0.07660   0.01267  Uiso   1.00
C242   C     0.82610   0.00920   0.07400   0.01267  Uiso   1.00
C243   C     0.82290   0.94760   0.11080   0.01267  Uiso   1.00
C244   C     0.85840   0.89650   0.09440   0.01267  Uiso   1.00
C245   C     0.88230   0.92570   0.04800   0.01267  Uiso   1.00
C246   C     0.92360   0.89000   0.01900   0.01267  Uiso   1.00
C247   C     0.95020   0.92050   0.97320   0.01267  Uiso   1.00
C248   C     0.00120   0.89080   0.94400   0.01267  Uiso   1.00
C249   C     0.00990   0.93350   0.90320   0.01267  Uiso   1.00
C250   C     0.96250   0.99410   0.90700   0.01267  Uiso   1.00
C251   C     0.95620   0.04920   0.87080   0.01267  Uiso   1.00
C252   C     0.91660   0.10830   0.87400   0.01267  Uiso   1.00
C253   C     0.90770   0.16760   0.83840   0.01267  Uiso   1.00
C254   C     0.86870   0.21670   0.85440   0.01267  Uiso   1.00
C255   C     0.85080   0.18950   0.90160   0.01267  Uiso   1.00
C256   C     0.81570   0.22780   0.92980   0.01267  Uiso   1.00
C257   C     0.80350   0.20740   0.97440   0.01267  Uiso   1.00
C258   C     0.76730   0.24460   0.00420   0.01267  Uiso   1.00
C259   C     0.76160   0.20390   0.04420   0.01267  Uiso   1.00
C260   C     0.79420   0.13810   0.04040   0.01267  Uiso   1.00
C261   C     0.76010   0.08040   0.12200   0.01267  Uiso   1.00
C262   C     0.80000   0.10700   0.14300   0.01267  Uiso   1.00
C263   C     0.77090   0.10800   0.18620   0.01267  Uiso   1.00
C264   C     0.69770   0.07990   0.20700   0.01267  Uiso   1.00
C265   C     0.65700   0.06630   0.18360   0.01267  Uiso   1.00
C266   C     0.69070   0.06320   0.14260   0.01267  Uiso   1.00
C267   C     0.66510   0.07320   0.25880   0.01267  Uiso   1.00
C268   C     0.93930   0.81210   0.03740   0.01267  Uiso   1.00
C269   C     0.98240   0.79630   0.06740   0.01267  Uiso   1.00
C270   C     0.99110   0.72480   0.08640   0.01267  Uiso   1.00
C271   C     0.96010   0.66730   0.07660   0.01267  Uiso   1.00
C272   C     0.92280   0.68380   0.04620   0.01267  Uiso   1.00
C273   C     0.91100   0.75540   0.02640   0.01267  Uiso   1.00
C274   C     0.96590   0.58850   0.10260   0.01267  Uiso   1.00
C275   C     0.78230   0.29790   0.91260   0.01267  Uiso   1.00
C276   C     0.82030   0.36680   0.90540   0.01267  Uiso   1.00
C277   C     0.78640   0.43030   0.89160   0.01267  Uiso   1.00
C278   C     0.71870   0.42510   0.88560   0.01267  Uiso   1.00
C279   C     0.68220   0.35650   0.89220   0.01267  Uiso   1.00
C280   C     0.71510   0.29490   0.90580   0.01267  Uiso   1.00
C281   C     0.68010   0.49640   0.87240   0.01267  Uiso   1.00
C282   C     0.99600   0.03920   0.82660   0.01267  Uiso   1.00
C283   C     0.97500   0.98000   0.81480   0.01267  Uiso   1.00
C284   C     0.01440   0.96540   0.77760   0.01267  Uiso   1.00
C285   C     0.07900   0.00760   0.75200   0.01267  Uiso   1.00
C286   C     0.09780   0.06970   0.76140   0.01267  Uiso   1.00
C287   C     0.05730   0.08670   0.79940   0.01267  Uiso   1.00
C288   C     0.12700   0.98610   0.71320   0.01267  Uiso   1.00
C289   C     0.84720   0.79630   0.57660   0.01267  Uiso   1.00
C290   C     0.91680   0.82610   0.57400   0.01267  Uiso   1.00
C291   C     0.94160   0.82290   0.61080   0.01267  Uiso   1.00
C292   C     0.00910   0.85840   0.59440   0.01267  Uiso   1.00
C293   C     0.02630   0.88230   0.54800   0.01267  Uiso   1.00
C294   C     0.09100   0.92360   0.51900   0.01267  Uiso   1.00
C295   C     0.10630   0.95020   0.47320   0.01267  Uiso   1.00
C296   C     0.16520   0.00120   0.44400   0.01267  Uiso   1.00
C297   C     0.16330   0.00990   0.40320   0.01267  Uiso   1.00
C298   C     0.09890   0.96250   0.40700   0.01267  Uiso   1.00
C299   C     0.08000   0.95620   0.37080   0.01267  Uiso   1.00
C300   C     0.01770   0.91660   0.37400   0.01267  Uiso   1.00
C301   C     0.99400   0.90770   0.33840   0.01267  Uiso   1.00
C302   C     0.92890   0.86870   0.35440   0.01267  Uiso   1.00
C303   C     0.90890   0.85080   0.40160   0.01267  Uiso   1.00
C304   C     0.84240   0.81570   0.42980   0.01267  Uiso   1.00
C305   C     0.81820   0.80350   0.47440   0.01267  Uiso   1.00
C306   C     0.75120   0.76730   0.50420   0.01267  Uiso   1.00
C307   C     0.75190   0.76160   0.54420   0.01267  Uiso   1.00
C308   C     0.82150   0.79420   0.54040   0.01267  Uiso   1.00
C309   C     0.79760   0.76010   0.62200   0.01267  Uiso   1.00
C310   C     0.75000   0.80000   0.64300   0.01267  Uiso   1.00
C311   C     0.70580   0.77090   0.68620   0.01267  Uiso   1.00
C312   C     0.71310   0.69770   0.70700   0.01267  Uiso   1.00
C313   C     0.75010   0.65700   0.68360   0.01267  Uiso   1.00
C314   C     0.79420   0.69070   0.64260   0.01267  Uiso   1.00
C315   C     0.66800   0.66510   0.75880   0.01267  Uiso   1.00
C316   C     0.15050   0.93930   0.53740   0.01267  Uiso   1.00
C317   C     0.13630   0.98240   0.56740   0.01267  Uiso   1.00
C318   C     0.18880   0.99110   0.58640   0.01267  Uiso   1.00
C319   C     0.25610   0.96010   0.57660   0.01267  Uiso   1.00
C320   C     0.27000   0.92280   0.54620   0.01267  Uiso   1.00
C321   C     0.21820   0.91100   0.52640   0.01267  Uiso   1.00
C322   C     0.30890   0.96590   0.60260   0.01267  Uiso   1.00
C323   C     0.78950   0.78230   0.41260   0.01267  Uiso   1.00
C324   C     0.72780   0.82030   0.40540   0.01267  Uiso   1.00
C325   C     0.67810   0.78640   0.39160   0.01267  Uiso   1.00
C326   C     0.68930   0.71870   0.38560   0.01267  Uiso   1.00
C327   C     0.75130   0.68220   0.39220   0.01267  Uiso   1.00
C328   C     0.79930   0.71510   0.40580   0.01267  Uiso   1.00
C329   C     0.63120   0.68010   0.37240   0.01267  Uiso   1.00
C330   C     0.13420   0.99600   0.32660   0.01267  Uiso   1.00
C331   C     0.20520   0.97500   0.31480   0.01267  Uiso   1.00
C332   C     0.25700   0.01440   0.27760   0.01267  Uiso   1.00
C333   C     0.24040   0.07900   0.25200   0.01267  Uiso   1.00
C334   C     0.16890   0.09780   0.26140   0.01267  Uiso   1.00
C335   C     0.11390   0.05730   0.29940   0.01267  Uiso   1.00
C336   C     0.30070   0.12700   0.21320   0.01267  Uiso   1.00
C337   C     0.07620   0.62710   0.57660   0.01267  Uiso   1.00
C338   C     0.00920   0.59990   0.57400   0.01267  Uiso   1.00
C339   C     0.94760   0.56630   0.61080   0.01267  Uiso   1.00
C340   C     0.89650   0.54720   0.59440   0.01267  Uiso   1.00
C341   C     0.92570   0.56970   0.54800   0.01267  Uiso   1.00
C342   C     0.89000   0.55740   0.51900   0.01267  Uiso   1.00
C343   C     0.92050   0.57660   0.47320   0.01267  Uiso   1.00
C344   C     0.89080   0.55480   0.44400   0.01267  Uiso   1.00
C345   C     0.93350   0.58690   0.40320   0.01267  Uiso   1.00
C346   C     0.99410   0.63050   0.40700   0.01267  Uiso   1.00
C347   C     0.04920   0.67300   0.37080   0.01267  Uiso   1.00
C348   C     0.10830   0.70940   0.37400   0.01267  Uiso   1.00
C349   C     0.16760   0.75390   0.33840   0.01267  Uiso   1.00
C350   C     0.21670   0.77690   0.35440   0.01267  Uiso   1.00
C351   C     0.18950   0.74760   0.40160   0.01267  Uiso   1.00
C352   C     0.22780   0.75450   0.42980   0.01267  Uiso   1.00
C353   C     0.20740   0.72210   0.47440   0.01267  Uiso   1.00
C354   C     0.24460   0.72850   0.50420   0.01267  Uiso   1.00
C355   C     0.20390   0.69420   0.54420   0.01267  Uiso   1.00
C356   C     0.13810   0.66540   0.54040   0.01267  Uiso   1.00
C357   C     0.08040   0.61790   0.62200   0.01267  Uiso   1.00
C358   C     0.10700   0.55700   0.64300   0.01267  Uiso   1.00
C359   C     0.10800   0.54290   0.68620   0.01267  Uiso   1.00
C360   C     0.07990   0.59530   0.70700   0.01267  Uiso   1.00
C361   C     0.06630   0.65940   0.68360   0.01267  Uiso   1.00
C362   C     0.06320   0.66670   0.64260   0.01267  Uiso   1.00
C363   C     0.07320   0.57610   0.75880   0.01267  Uiso   1.00
C364   C     0.81210   0.52330   0.53740   0.01267  Uiso   1.00
C365   C     0.79630   0.45020   0.56740   0.01267  Uiso   1.00
C366   C     0.72480   0.42250   0.58640   0.01267  Uiso   1.00
C367   C     0.66730   0.46330   0.57660   0.01267  Uiso   1.00
C368   C     0.68380   0.53100   0.54620   0.01267  Uiso   1.00
C369   C     0.75540   0.56260   0.52640   0.01267  Uiso   1.00
C370   C     0.58850   0.43150   0.60260   0.01267  Uiso   1.00
C371   C     0.29790   0.80510   0.41260   0.01267  Uiso   1.00
C372   C     0.36680   0.77430   0.40540   0.01267  Uiso   1.00
C373   C     0.43030   0.82200   0.39160   0.01267  Uiso   1.00
C374   C     0.42510   0.89570   0.38560   0.01267  Uiso   1.00
C375   C     0.35650   0.92560   0.39220   0.01267  Uiso   1.00
C376   C     0.29490   0.87910   0.40580   0.01267  Uiso   1.00
C377   C     0.49640   0.94750   0.37240   0.01267  Uiso   1.00
C378   C     0.03920   0.67740   0.32660   0.01267  Uiso   1.00
C379   C     0.98000   0.71020   0.31480   0.01267  Uiso   1.00
C380   C     0.96540   0.70800   0.27760   0.01267  Uiso   1.00
C381   C     0.00760   0.66900   0.25200   0.01267  Uiso   1.00
C382   C     0.06970   0.64080   0.26140   0.01267  Uiso   1.00
C383   C     0.08670   0.64330   0.29940   0.01267  Uiso   1.00
C384   C     0.98610   0.65980   0.21320   0.01267  Uiso   1.00
N1     N     0.31910   0.13700   0.00160   0.01267  Uiso   1.00
N2     N     0.39680   0.03130   0.96400   0.01267  Uiso   1.00
N3     N     0.37750   0.93540   0.05020   0.01267  Uiso   1.00
N4     N     0.29240   0.03650   0.08740   0.01267  Uiso   1.00
N5     N     0.17930   0.86140   0.00160   0.01267  Uiso   1.00
N6     N     0.13920   0.00470   0.96400   0.01267  Uiso   1.00
N7     N     0.07230   0.01440   0.05020   0.01267  Uiso   1.00
N8     N     0.12020   0.87610   0.08740   0.01267  Uiso   1.00
N9     N     0.13700   0.17930   0.50160   0.01267  Uiso   1.00
N10    N     0.03130   0.13920   0.46400   0.01267  Uiso   1.00
N11    N     0.93540   0.07230   0.55020   0.01267  Uiso   1.00
N12    N     0.03650   0.12020   0.58740   0.01267  Uiso   1.00
N13    N     0.86140   0.31910   0.50160   0.01267  Uiso   1.00
N14    N     0.00470   0.39680   0.46400   0.01267  Uiso   1.00
N15    N     0.01440   0.37750   0.55020   0.01267  Uiso   1.00
N16    N     0.87610   0.29240   0.58740   0.01267  Uiso   1.00
N17    N     0.68090   0.86300   0.99840   0.01267  Uiso   1.00
N18    N     0.60320   0.96870   0.03600   0.01267  Uiso   1.00
N19    N     0.62250   0.06460   0.94980   0.01267  Uiso   1.00
N20    N     0.70760   0.96350   0.91260   0.01267  Uiso   1.00
N21    N     0.82070   0.13860   0.99840   0.01267  Uiso   1.00
N22    N     0.86080   0.99530   0.03600   0.01267  Uiso   1.00
N23    N     0.92770   0.98560   0.94980   0.01267  Uiso   1.00
N24    N     0.87980   0.12390   0.91260   0.01267  Uiso   1.00
N25    N     0.86300   0.82070   0.49840   0.01267  Uiso   1.00
N26    N     0.96870   0.86080   0.53600   0.01267  Uiso   1.00
N27    N     0.06460   0.92770   0.44980   0.01267  Uiso   1.00
N28    N     0.96350   0.87980   0.41260   0.01267  Uiso   1.00
N29    N     0.13860   0.68090   0.49840   0.01267  Uiso   1.00
N30    N     0.99530   0.60320   0.53600   0.01267  Uiso   1.00
N31    N     0.98560   0.62250   0.44980   0.01267  Uiso   1.00
N32    N     0.12390   0.70760   0.41260   0.01267  Uiso   1.00
O1     O     0.47510   0.37570   0.72620   0.01267  Uiso   1.00
O2     O     0.37450   0.33320   0.72760   0.01267  Uiso   1.00
O3     O     0.62100   0.70960   0.86460   0.01267  Uiso   1.00
O4     O     0.53480   0.62840   0.91140   0.01267  Uiso   1.00
O5     O     0.07530   0.41690   0.14080   0.01267  Uiso   1.00
O6     O     0.98850   0.36300   0.12500   0.01267  Uiso   1.00
O7     O     0.37950   0.72080   0.30820   0.01267  Uiso   1.00
O8     O     0.31440   0.63810   0.29580   0.01267  Uiso   1.00
O9     O     0.29870   0.89810   0.72620   0.01267  Uiso   1.00
O10    O     0.39790   0.93920   0.72760   0.01267  Uiso   1.00
O11    O     0.01440   0.42580   0.86460   0.01267  Uiso   1.00
O12    O     0.05380   0.46020   0.91140   0.01267  Uiso   1.00
O13    O     0.28390   0.44230   0.14080   0.01267  Uiso   1.00
O14    O     0.38650   0.51200   0.12500   0.01267  Uiso   1.00
O15    O     0.81230   0.97100   0.30820   0.01267  Uiso   1.00
O16    O     0.88980   0.06610   0.29580   0.01267  Uiso   1.00
O17    O     0.37570   0.29870   0.22620   0.01267  Uiso   1.00
O18    O     0.33320   0.39790   0.22760   0.01267  Uiso   1.00
O19    O     0.70960   0.01440   0.36460   0.01267  Uiso   1.00
O20    O     0.62840   0.05380   0.41140   0.01267  Uiso   1.00
O21    O     0.41690   0.28390   0.64080   0.01267  Uiso   1.00
O22    O     0.36300   0.38650   0.62500   0.01267  Uiso   1.00
O23    O     0.72080   0.81230   0.80820   0.01267  Uiso   1.00
O24    O     0.63810   0.88980   0.79580   0.01267  Uiso   1.00
O25    O     0.89810   0.47510   0.22620   0.01267  Uiso   1.00
O26    O     0.93920   0.37450   0.22760   0.01267  Uiso   1.00
O27    O     0.42580   0.62100   0.36460   0.01267  Uiso   1.00
O28    O     0.46020   0.53480   0.41140   0.01267  Uiso   1.00
O29    O     0.44230   0.07530   0.64080   0.01267  Uiso   1.00
O30    O     0.51200   0.98850   0.62500   0.01267  Uiso   1.00
O31    O     0.97100   0.37950   0.80820   0.01267  Uiso   1.00
O32    O     0.06610   0.31440   0.79580   0.01267  Uiso   1.00
O33    O     0.52490   0.62430   0.27380   0.01267  Uiso   1.00
O34    O     0.62550   0.66680   0.27240   0.01267  Uiso   1.00
O35    O     0.37900   0.29040   0.13540   0.01267  Uiso   1.00
O36    O     0.46520   0.37160   0.08860   0.01267  Uiso   1.00
O37    O     0.92470   0.58310   0.85920   0.01267  Uiso   1.00
O38    O     0.01150   0.63700   0.87500   0.01267  Uiso   1.00
O39    O     0.62050   0.27920   0.69180   0.01267  Uiso   1.00
O40    O     0.68560   0.36190   0.70420   0.01267  Uiso   1.00
O41    O     0.70130   0.10190   0.27380   0.01267  Uiso   1.00
O42    O     0.60210   0.06080   0.27240   0.01267  Uiso   1.00
O43    O     0.98560   0.57420   0.13540   0.01267  Uiso   1.00
O44    O     0.94620   0.53980   0.08860   0.01267  Uiso   1.00
O45    O     0.71610   0.55770   0.85920   0.01267  Uiso   1.00
O46    O     0.61350   0.48800   0.87500   0.01267  Uiso   1.00
O47    O     0.18770   0.02900   0.69180   0.01267  Uiso   1.00
O48    O     0.11020   0.93390   0.70420   0.01267  Uiso   1.00
O49    O     0.62430   0.70130   0.77380   0.01267  Uiso   1.00
O50    O     0.66680   0.60210   0.77240   0.01267  Uiso   1.00
O51    O     0.29040   0.98560   0.63540   0.01267  Uiso   1.00
O52    O     0.37160   0.94620   0.58860   0.01267  Uiso   1.00
O53    O     0.58310   0.71610   0.35920   0.01267  Uiso   1.00
O54    O     0.63700   0.61350   0.37500   0.01267  Uiso   1.00
O55    O     0.27920   0.18770   0.19180   0.01267  Uiso   1.00
O56    O     0.36190   0.11020   0.20420   0.01267  Uiso   1.00
O57    O     0.10190   0.52490   0.77380   0.01267  Uiso   1.00
O58    O     0.06080   0.62550   0.77240   0.01267  Uiso   1.00
O59    O     0.57420   0.37900   0.63540   0.01267  Uiso   1.00
O60    O     0.53980   0.46520   0.58860   0.01267  Uiso   1.00
O61    O     0.55770   0.92470   0.35920   0.01267  Uiso   1.00
O62    O     0.48800   0.01150   0.37500   0.01267  Uiso   1.00
O63    O     0.02900   0.62050   0.19180   0.01267  Uiso   1.00
O64    O     0.93390   0.68560   0.20420   0.01267  Uiso   1.00
O65    O     0.23910   0.98910   0.02180   0.01267  Uiso   1.00
O66    O     0.98910   0.23910   0.52180   0.01267  Uiso   1.00
O67    O     0.76090   0.01090   0.97820   0.01267  Uiso   1.00
O68    O     0.01090   0.76090   0.47820   0.01267  Uiso   1.00
