data_NIFYOS_charged
_audit_creation_date              2014-07-02
_audit_creation_method            'Materials Studio'
_symmetry_space_group_name_H-M    'P1'
_symmetry_Int_Tables_number       1
_symmetry_cell_setting            triclinic
loop_
_symmetry_equiv_pos_as_xyz
  x,y,z
_cell_length_a                    18.4705
_cell_length_b                    18.5280
_cell_length_c                    49.3489
_cell_angle_alpha                 90.0000
_cell_angle_beta                  90.0000
_cell_angle_gamma                 90.0000
loop_
_atom_site_label
_atom_site_type_symbol
_atom_site_fract_x
_atom_site_fract_y
_atom_site_fract_z
_atom_site_U_iso_or_equiv
_atom_site_adp_type
_atom_site_occupancy
Lu1    Lu    0.29728   0.42714   0.87849   0.01267  Uiso   1.00
Lu2    Lu    0.86600   0.40154   0.12222   0.01267  Uiso   1.00
Lu3    Lu    0.68445   0.51409   0.87533   0.01267  Uiso   1.00
Lu4    Lu    0.79728   0.57286   0.62151   0.01267  Uiso   1.00
Lu5    Lu    0.36600   0.59846   0.37778   0.01267  Uiso   1.00
Lu6    Lu    0.18445   0.48591   0.62467   0.01267  Uiso   1.00
Lu7    Lu    0.20272   0.92714   0.12151   0.01267  Uiso   1.00
Lu8    Lu    0.63400   0.90154   0.87778   0.01267  Uiso   1.00
Lu9    Lu    0.81555   0.01409   0.12467   0.01267  Uiso   1.00
Lu10   Lu    0.70272   0.07287   0.37849   0.01267  Uiso   1.00
Lu11   Lu    0.13400   0.09846   0.62222   0.01267  Uiso   1.00
Lu12   Lu    0.31555   0.98591   0.37533   0.01267  Uiso   1.00
Lu13   Lu    0.70272   0.57286   0.12151   0.01267  Uiso   1.00
Lu14   Lu    0.13400   0.59846   0.87778   0.01267  Uiso   1.00
Lu15   Lu    0.31555   0.48591   0.12467   0.01267  Uiso   1.00
Lu16   Lu    0.20272   0.42714   0.37849   0.01267  Uiso   1.00
Lu17   Lu    0.63400   0.40154   0.62222   0.01267  Uiso   1.00
Lu18   Lu    0.81555   0.51409   0.37533   0.01267  Uiso   1.00
Lu19   Lu    0.79728   0.07287   0.87849   0.01267  Uiso   1.00
Lu20   Lu    0.36600   0.09846   0.12222   0.01267  Uiso   1.00
Lu21   Lu    0.18445   0.98591   0.87533   0.01267  Uiso   1.00
Lu22   Lu    0.29728   0.92714   0.62151   0.01267  Uiso   1.00
Lu23   Lu    0.86600   0.90154   0.37778   0.01267  Uiso   1.00
Lu24   Lu    0.68445   0.01409   0.62467   0.01267  Uiso   1.00
Co1    Co    0.95533   0.38368   0.75458   0.01267  Uiso   1.00
Co2    Co    0.10761   0.24759   0.99786   0.01267  Uiso   1.00
Co3    Co    0.45533   0.61632   0.74542   0.01267  Uiso   1.00
Co4    Co    0.60761   0.75241   0.50214   0.01267  Uiso   1.00
Co5    Co    0.54467   0.88368   0.24542   0.01267  Uiso   1.00
Co6    Co    0.39239   0.74759   0.00214   0.01267  Uiso   1.00
Co7    Co    0.04467   0.11632   0.25458   0.01267  Uiso   1.00
Co8    Co    0.89239   0.25241   0.49786   0.01267  Uiso   1.00
Co9    Co    0.04467   0.61632   0.24542   0.01267  Uiso   1.00
Co10   Co    0.89239   0.75241   0.00214   0.01267  Uiso   1.00
Co11   Co    0.54467   0.38368   0.25458   0.01267  Uiso   1.00
Co12   Co    0.39239   0.24759   0.49786   0.01267  Uiso   1.00
Co13   Co    0.45533   0.11632   0.75458   0.01267  Uiso   1.00
Co14   Co    0.60761   0.25241   0.99786   0.01267  Uiso   1.00
Co15   Co    0.95533   0.88368   0.74542   0.01267  Uiso   1.00
Co16   Co    0.10761   0.74759   0.50214   0.01267  Uiso   1.00
H1     H     0.44270   0.43930   0.88670   0.01267  Uiso   1.00
H2     H     0.44230   0.46500   0.86050   0.01267  Uiso   1.00
H3     H     0.28010   0.28680   0.89490   0.01267  Uiso   1.00
H4     H     0.29020   0.28860   0.86690   0.01267  Uiso   1.00
H5     H     0.00140   0.43740   0.09860   0.01267  Uiso   1.00
H6     H     0.00870   0.41870   0.12580   0.01267  Uiso   1.00
H7     H     0.71140   0.67200   0.87310   0.01267  Uiso   1.00
H8     H     0.63540   0.66580   0.87430   0.01267  Uiso   1.00
H9     H     0.55360   0.55880   0.90910   0.01267  Uiso   1.00
H10    H     0.61160   0.56110   0.89170   0.01267  Uiso   1.00
H11    H     0.03580   0.22650   0.05500   0.01267  Uiso   1.00
H12    H     0.86970   0.36590   0.05720   0.01267  Uiso   1.00
H13    H     0.90750   0.41000   0.01500   0.01267  Uiso   1.00
H14    H     0.96060   0.45590   0.97610   0.01267  Uiso   1.00
H15    H     0.02690   0.49840   0.93950   0.01267  Uiso   1.00
H16    H     0.16770   0.33550   0.95030   0.01267  Uiso   1.00
H17    H     0.86520   0.64000   0.96020   0.01267  Uiso   1.00
H18    H     0.65030   0.63440   0.95030   0.01267  Uiso   1.00
H19    H     0.63790   0.71430   0.98680   0.01267  Uiso   1.00
H20    H     0.64290   0.79320   0.02460   0.01267  Uiso   1.00
H21    H     0.65880   0.86100   0.06460   0.01267  Uiso   1.00
H22    H     0.87310   0.83800   0.05500   0.01267  Uiso   1.00
H23    H     0.50410   0.25800   0.94750   0.01267  Uiso   1.00
H24    H     0.37360   0.42580   0.96300   0.01267  Uiso   1.00
H25    H     0.43720   0.44690   0.00300   0.01267  Uiso   1.00
H26    H     0.50360   0.45970   0.04060   0.01267  Uiso   1.00
H27    H     0.58590   0.47470   0.07540   0.01267  Uiso   1.00
H28    H     0.70680   0.31580   0.04330   0.01267  Uiso   1.00
H29    H     0.85280   0.41980   0.80410   0.01267  Uiso   1.00
H30    H     0.86130   0.63230   0.81740   0.01267  Uiso   1.00
H31    H     0.92830   0.64450   0.77720   0.01267  Uiso   1.00
H32    H     0.97710   0.64610   0.73430   0.01267  Uiso   1.00
H33    H     0.04030   0.63700   0.69330   0.01267  Uiso   1.00
H34    H     0.04990   0.42360   0.70470   0.01267  Uiso   1.00
H35    H     0.03130   0.45590   0.80660   0.01267  Uiso   1.00
H36    H     0.18290   0.31700   0.83240   0.01267  Uiso   1.00
H37    H     0.15850   0.24500   0.79470   0.01267  Uiso   1.00
H38    H     0.14830   0.19630   0.75430   0.01267  Uiso   1.00
H39    H     0.13420   0.15040   0.71020   0.01267  Uiso   1.00
H40    H     0.97580   0.29560   0.69800   0.01267  Uiso   1.00
H41    H     0.38060   0.55400   0.79890   0.01267  Uiso   1.00
H42    H     0.24460   0.70600   0.82670   0.01267  Uiso   1.00
H43    H     0.26700   0.77200   0.78680   0.01267  Uiso   1.00
H44    H     0.27940   0.81970   0.74620   0.01267  Uiso   1.00
H45    H     0.30090   0.86560   0.70220   0.01267  Uiso   1.00
H46    H     0.44030   0.70460   0.68960   0.01267  Uiso   1.00
H47    H     0.94270   0.56070   0.61330   0.01267  Uiso   1.00
H48    H     0.94230   0.53500   0.63950   0.01267  Uiso   1.00
H49    H     0.78010   0.71320   0.60510   0.01267  Uiso   1.00
H50    H     0.79020   0.71140   0.63310   0.01267  Uiso   1.00
H51    H     0.50140   0.56260   0.40140   0.01267  Uiso   1.00
H52    H     0.50870   0.58130   0.37420   0.01267  Uiso   1.00
H53    H     0.21140   0.32800   0.62690   0.01267  Uiso   1.00
H54    H     0.13540   0.33420   0.62570   0.01267  Uiso   1.00
H55    H     0.05360   0.44120   0.59090   0.01267  Uiso   1.00
H56    H     0.11160   0.43890   0.60830   0.01267  Uiso   1.00
H57    H     0.53580   0.77350   0.44500   0.01267  Uiso   1.00
H58    H     0.36970   0.63410   0.44280   0.01267  Uiso   1.00
H59    H     0.40750   0.59000   0.48500   0.01267  Uiso   1.00
H60    H     0.46060   0.54410   0.52390   0.01267  Uiso   1.00
H61    H     0.52690   0.50160   0.56050   0.01267  Uiso   1.00
H62    H     0.66770   0.66450   0.54970   0.01267  Uiso   1.00
H63    H     0.36520   0.36000   0.53980   0.01267  Uiso   1.00
H64    H     0.15030   0.36560   0.54970   0.01267  Uiso   1.00
H65    H     0.13790   0.28570   0.51320   0.01267  Uiso   1.00
H66    H     0.14290   0.20680   0.47540   0.01267  Uiso   1.00
H67    H     0.15880   0.13900   0.43540   0.01267  Uiso   1.00
H68    H     0.37310   0.16200   0.44500   0.01267  Uiso   1.00
H69    H     0.00410   0.74200   0.55250   0.01267  Uiso   1.00
H70    H     0.87360   0.57420   0.53700   0.01267  Uiso   1.00
H71    H     0.93720   0.55310   0.49700   0.01267  Uiso   1.00
H72    H     0.00360   0.54030   0.45940   0.01267  Uiso   1.00
H73    H     0.08590   0.52530   0.42460   0.01267  Uiso   1.00
H74    H     0.20680   0.68420   0.45670   0.01267  Uiso   1.00
H75    H     0.35280   0.58020   0.69590   0.01267  Uiso   1.00
H76    H     0.36130   0.36770   0.68260   0.01267  Uiso   1.00
H77    H     0.42830   0.35550   0.72280   0.01267  Uiso   1.00
H78    H     0.47710   0.35390   0.76570   0.01267  Uiso   1.00
H79    H     0.54030   0.36300   0.80670   0.01267  Uiso   1.00
H80    H     0.54990   0.57640   0.79530   0.01267  Uiso   1.00
H81    H     0.53130   0.54410   0.69340   0.01267  Uiso   1.00
H82    H     0.68290   0.68300   0.66760   0.01267  Uiso   1.00
H83    H     0.65850   0.75500   0.70530   0.01267  Uiso   1.00
H84    H     0.64830   0.80370   0.74570   0.01267  Uiso   1.00
H85    H     0.63420   0.84960   0.78980   0.01267  Uiso   1.00
H86    H     0.47580   0.70440   0.80200   0.01267  Uiso   1.00
H87    H     0.88060   0.44600   0.70110   0.01267  Uiso   1.00
H88    H     0.74460   0.29400   0.67330   0.01267  Uiso   1.00
H89    H     0.76700   0.22800   0.71320   0.01267  Uiso   1.00
H90    H     0.77940   0.18030   0.75380   0.01267  Uiso   1.00
H91    H     0.80090   0.13440   0.79780   0.01267  Uiso   1.00
H92    H     0.94030   0.29540   0.81040   0.01267  Uiso   1.00
H93    H     0.05730   0.93930   0.11330   0.01267  Uiso   1.00
H94    H     0.05770   0.96500   0.13950   0.01267  Uiso   1.00
H95    H     0.21990   0.78680   0.10510   0.01267  Uiso   1.00
H96    H     0.20980   0.78860   0.13310   0.01267  Uiso   1.00
H97    H     0.49860   0.93740   0.90140   0.01267  Uiso   1.00
H98    H     0.49130   0.91870   0.87420   0.01267  Uiso   1.00
H99    H     0.78860   0.17200   0.12690   0.01267  Uiso   1.00
H100   H     0.86460   0.16580   0.12570   0.01267  Uiso   1.00
H101   H     0.94640   0.05880   0.09090   0.01267  Uiso   1.00
H102   H     0.88840   0.06110   0.10830   0.01267  Uiso   1.00
H103   H     0.46420   0.72650   0.94500   0.01267  Uiso   1.00
H104   H     0.63030   0.86590   0.94280   0.01267  Uiso   1.00
H105   H     0.59250   0.91000   0.98500   0.01267  Uiso   1.00
H106   H     0.53940   0.95590   0.02390   0.01267  Uiso   1.00
H107   H     0.47310   0.99840   0.06050   0.01267  Uiso   1.00
H108   H     0.33230   0.83550   0.04970   0.01267  Uiso   1.00
H109   H     0.63480   0.14000   0.03980   0.01267  Uiso   1.00
H110   H     0.84970   0.13440   0.04970   0.01267  Uiso   1.00
H111   H     0.86210   0.21430   0.01320   0.01267  Uiso   1.00
H112   H     0.85710   0.29320   0.97540   0.01267  Uiso   1.00
H113   H     0.84120   0.36100   0.93540   0.01267  Uiso   1.00
H114   H     0.62690   0.33800   0.94500   0.01267  Uiso   1.00
H115   H     0.99590   0.75800   0.05250   0.01267  Uiso   1.00
H116   H     0.12640   0.92580   0.03700   0.01267  Uiso   1.00
H117   H     0.06280   0.94690   0.99700   0.01267  Uiso   1.00
H118   H     0.99640   0.95970   0.95940   0.01267  Uiso   1.00
H119   H     0.91410   0.97470   0.92460   0.01267  Uiso   1.00
H120   H     0.79320   0.81580   0.95670   0.01267  Uiso   1.00
H121   H     0.64720   0.91980   0.19590   0.01267  Uiso   1.00
H122   H     0.63870   0.13230   0.18260   0.01267  Uiso   1.00
H123   H     0.57170   0.14450   0.22280   0.01267  Uiso   1.00
H124   H     0.52290   0.14610   0.26570   0.01267  Uiso   1.00
H125   H     0.45970   0.13700   0.30670   0.01267  Uiso   1.00
H126   H     0.45010   0.92360   0.29530   0.01267  Uiso   1.00
H127   H     0.46870   0.95590   0.19340   0.01267  Uiso   1.00
H128   H     0.31710   0.81700   0.16760   0.01267  Uiso   1.00
H129   H     0.34150   0.74500   0.20530   0.01267  Uiso   1.00
H130   H     0.35170   0.69630   0.24570   0.01267  Uiso   1.00
H131   H     0.36580   0.65040   0.28980   0.01267  Uiso   1.00
H132   H     0.52420   0.79560   0.30200   0.01267  Uiso   1.00
H133   H     0.11940   0.05400   0.20110   0.01267  Uiso   1.00
H134   H     0.25540   0.20600   0.17330   0.01267  Uiso   1.00
H135   H     0.23300   0.27200   0.21320   0.01267  Uiso   1.00
H136   H     0.22060   0.31970   0.25380   0.01267  Uiso   1.00
H137   H     0.19910   0.36560   0.29780   0.01267  Uiso   1.00
H138   H     0.05970   0.20460   0.31040   0.01267  Uiso   1.00
H139   H     0.55730   0.06070   0.38670   0.01267  Uiso   1.00
H140   H     0.55770   0.03500   0.36050   0.01267  Uiso   1.00
H141   H     0.71990   0.21320   0.39490   0.01267  Uiso   1.00
H142   H     0.70980   0.21140   0.36690   0.01267  Uiso   1.00
H143   H     0.99860   0.06260   0.59860   0.01267  Uiso   1.00
H144   H     0.99130   0.08130   0.62580   0.01267  Uiso   1.00
H145   H     0.28860   0.82800   0.37310   0.01267  Uiso   1.00
H146   H     0.36460   0.83420   0.37430   0.01267  Uiso   1.00
H147   H     0.44640   0.94120   0.40910   0.01267  Uiso   1.00
H148   H     0.38840   0.93890   0.39170   0.01267  Uiso   1.00
H149   H     0.96420   0.27350   0.55500   0.01267  Uiso   1.00
H150   H     0.13030   0.13410   0.55720   0.01267  Uiso   1.00
H151   H     0.09250   0.09000   0.51500   0.01267  Uiso   1.00
H152   H     0.03940   0.04410   0.47610   0.01267  Uiso   1.00
H153   H     0.97310   0.00160   0.43950   0.01267  Uiso   1.00
H154   H     0.83230   0.16450   0.45030   0.01267  Uiso   1.00
H155   H     0.13480   0.86000   0.46020   0.01267  Uiso   1.00
H156   H     0.34970   0.86560   0.45030   0.01267  Uiso   1.00
H157   H     0.36210   0.78570   0.48680   0.01267  Uiso   1.00
H158   H     0.35710   0.70680   0.52460   0.01267  Uiso   1.00
H159   H     0.34120   0.63900   0.56460   0.01267  Uiso   1.00
H160   H     0.12690   0.66200   0.55500   0.01267  Uiso   1.00
H161   H     0.49590   0.24200   0.44750   0.01267  Uiso   1.00
H162   H     0.62640   0.07420   0.46300   0.01267  Uiso   1.00
H163   H     0.56280   0.05310   0.50300   0.01267  Uiso   1.00
H164   H     0.49640   0.04030   0.54060   0.01267  Uiso   1.00
H165   H     0.41410   0.02530   0.57540   0.01267  Uiso   1.00
H166   H     0.29320   0.18420   0.54330   0.01267  Uiso   1.00
H167   H     0.14720   0.08020   0.30410   0.01267  Uiso   1.00
H168   H     0.13870   0.86770   0.31740   0.01267  Uiso   1.00
H169   H     0.07170   0.85550   0.27720   0.01267  Uiso   1.00
H170   H     0.02290   0.85390   0.23430   0.01267  Uiso   1.00
H171   H     0.95970   0.86300   0.19330   0.01267  Uiso   1.00
H172   H     0.95010   0.07640   0.20470   0.01267  Uiso   1.00
H173   H     0.96870   0.04410   0.30660   0.01267  Uiso   1.00
H174   H     0.81710   0.18300   0.33240   0.01267  Uiso   1.00
H175   H     0.84150   0.25500   0.29470   0.01267  Uiso   1.00
H176   H     0.85170   0.30370   0.25430   0.01267  Uiso   1.00
H177   H     0.86580   0.34960   0.21020   0.01267  Uiso   1.00
H178   H     0.02420   0.20440   0.19800   0.01267  Uiso   1.00
H179   H     0.61940   0.94600   0.29890   0.01267  Uiso   1.00
H180   H     0.75540   0.79400   0.32670   0.01267  Uiso   1.00
H181   H     0.73300   0.72800   0.28680   0.01267  Uiso   1.00
H182   H     0.72060   0.68030   0.24620   0.01267  Uiso   1.00
H183   H     0.69910   0.63440   0.20220   0.01267  Uiso   1.00
H184   H     0.55970   0.79540   0.18960   0.01267  Uiso   1.00
H185   H     0.55730   0.56070   0.11330   0.01267  Uiso   1.00
H186   H     0.55770   0.53500   0.13950   0.01267  Uiso   1.00
H187   H     0.71990   0.71320   0.10510   0.01267  Uiso   1.00
H188   H     0.70980   0.71140   0.13310   0.01267  Uiso   1.00
H189   H     0.99860   0.56260   0.90140   0.01267  Uiso   1.00
H190   H     0.99130   0.58130   0.87420   0.01267  Uiso   1.00
H191   H     0.28860   0.32800   0.12690   0.01267  Uiso   1.00
H192   H     0.36460   0.33420   0.12570   0.01267  Uiso   1.00
H193   H     0.44640   0.44120   0.09090   0.01267  Uiso   1.00
H194   H     0.38840   0.43890   0.10830   0.01267  Uiso   1.00
H195   H     0.96420   0.77350   0.94500   0.01267  Uiso   1.00
H196   H     0.13030   0.63410   0.94280   0.01267  Uiso   1.00
H197   H     0.09250   0.59000   0.98500   0.01267  Uiso   1.00
H198   H     0.03940   0.54410   0.02390   0.01267  Uiso   1.00
H199   H     0.97310   0.50160   0.06050   0.01267  Uiso   1.00
H200   H     0.83230   0.66450   0.04970   0.01267  Uiso   1.00
H201   H     0.13480   0.36000   0.03980   0.01267  Uiso   1.00
H202   H     0.34970   0.36560   0.04970   0.01267  Uiso   1.00
H203   H     0.36210   0.28570   0.01320   0.01267  Uiso   1.00
H204   H     0.35710   0.20680   0.97540   0.01267  Uiso   1.00
H205   H     0.34120   0.13900   0.93540   0.01267  Uiso   1.00
H206   H     0.12690   0.16200   0.94500   0.01267  Uiso   1.00
H207   H     0.49590   0.74200   0.05250   0.01267  Uiso   1.00
H208   H     0.62640   0.57420   0.03700   0.01267  Uiso   1.00
H209   H     0.56280   0.55310   0.99700   0.01267  Uiso   1.00
H210   H     0.49640   0.54030   0.95940   0.01267  Uiso   1.00
H211   H     0.41410   0.52530   0.92460   0.01267  Uiso   1.00
H212   H     0.29320   0.68420   0.95670   0.01267  Uiso   1.00
H213   H     0.14720   0.58020   0.19590   0.01267  Uiso   1.00
H214   H     0.13870   0.36770   0.18260   0.01267  Uiso   1.00
H215   H     0.07170   0.35550   0.22280   0.01267  Uiso   1.00
H216   H     0.02290   0.35390   0.26570   0.01267  Uiso   1.00
H217   H     0.95970   0.36300   0.30670   0.01267  Uiso   1.00
H218   H     0.95010   0.57640   0.29530   0.01267  Uiso   1.00
H219   H     0.96870   0.54410   0.19340   0.01267  Uiso   1.00
H220   H     0.81710   0.68300   0.16760   0.01267  Uiso   1.00
H221   H     0.84150   0.75500   0.20530   0.01267  Uiso   1.00
H222   H     0.85170   0.80370   0.24570   0.01267  Uiso   1.00
H223   H     0.86580   0.84960   0.28980   0.01267  Uiso   1.00
H224   H     0.02420   0.70440   0.30200   0.01267  Uiso   1.00
H225   H     0.61940   0.44600   0.20110   0.01267  Uiso   1.00
H226   H     0.75540   0.29400   0.17330   0.01267  Uiso   1.00
H227   H     0.73300   0.22800   0.21320   0.01267  Uiso   1.00
H228   H     0.72060   0.18030   0.25380   0.01267  Uiso   1.00
H229   H     0.69910   0.13440   0.29780   0.01267  Uiso   1.00
H230   H     0.55970   0.29540   0.31040   0.01267  Uiso   1.00
H231   H     0.05730   0.43930   0.38670   0.01267  Uiso   1.00
H232   H     0.05770   0.46500   0.36050   0.01267  Uiso   1.00
H233   H     0.21990   0.28680   0.39490   0.01267  Uiso   1.00
H234   H     0.20980   0.28860   0.36690   0.01267  Uiso   1.00
H235   H     0.49860   0.43740   0.59860   0.01267  Uiso   1.00
H236   H     0.49130   0.41870   0.62580   0.01267  Uiso   1.00
H237   H     0.78860   0.67200   0.37310   0.01267  Uiso   1.00
H238   H     0.86460   0.66580   0.37430   0.01267  Uiso   1.00
H239   H     0.94640   0.55880   0.40910   0.01267  Uiso   1.00
H240   H     0.88840   0.56110   0.39170   0.01267  Uiso   1.00
H241   H     0.46420   0.22650   0.55500   0.01267  Uiso   1.00
H242   H     0.63030   0.36590   0.55720   0.01267  Uiso   1.00
H243   H     0.59250   0.41000   0.51500   0.01267  Uiso   1.00
H244   H     0.53940   0.45590   0.47610   0.01267  Uiso   1.00
H245   H     0.47310   0.49840   0.43950   0.01267  Uiso   1.00
H246   H     0.33230   0.33550   0.45030   0.01267  Uiso   1.00
H247   H     0.63480   0.64000   0.46020   0.01267  Uiso   1.00
H248   H     0.84970   0.63440   0.45030   0.01267  Uiso   1.00
H249   H     0.86210   0.71430   0.48680   0.01267  Uiso   1.00
H250   H     0.85710   0.79320   0.52460   0.01267  Uiso   1.00
H251   H     0.84120   0.86100   0.56460   0.01267  Uiso   1.00
H252   H     0.62690   0.83800   0.55500   0.01267  Uiso   1.00
H253   H     0.99590   0.25800   0.44750   0.01267  Uiso   1.00
H254   H     0.12640   0.42580   0.46300   0.01267  Uiso   1.00
H255   H     0.06280   0.44690   0.50300   0.01267  Uiso   1.00
H256   H     0.99640   0.45970   0.54060   0.01267  Uiso   1.00
H257   H     0.91410   0.47470   0.57540   0.01267  Uiso   1.00
H258   H     0.79320   0.31580   0.54330   0.01267  Uiso   1.00
H259   H     0.64720   0.41980   0.30410   0.01267  Uiso   1.00
H260   H     0.63870   0.63230   0.31740   0.01267  Uiso   1.00
H261   H     0.57170   0.64450   0.27720   0.01267  Uiso   1.00
H262   H     0.52290   0.64610   0.23430   0.01267  Uiso   1.00
H263   H     0.45970   0.63700   0.19330   0.01267  Uiso   1.00
H264   H     0.45010   0.42360   0.20470   0.01267  Uiso   1.00
H265   H     0.46870   0.45590   0.30660   0.01267  Uiso   1.00
H266   H     0.31710   0.31700   0.33240   0.01267  Uiso   1.00
H267   H     0.34150   0.24500   0.29470   0.01267  Uiso   1.00
H268   H     0.35170   0.19630   0.25430   0.01267  Uiso   1.00
H269   H     0.36580   0.15040   0.21020   0.01267  Uiso   1.00
H270   H     0.52420   0.29560   0.19800   0.01267  Uiso   1.00
H271   H     0.11940   0.55400   0.29890   0.01267  Uiso   1.00
H272   H     0.25540   0.70600   0.32670   0.01267  Uiso   1.00
H273   H     0.23300   0.77200   0.28680   0.01267  Uiso   1.00
H274   H     0.22060   0.81970   0.24620   0.01267  Uiso   1.00
H275   H     0.19910   0.86560   0.20220   0.01267  Uiso   1.00
H276   H     0.05970   0.70460   0.18960   0.01267  Uiso   1.00
H277   H     0.94270   0.06070   0.88670   0.01267  Uiso   1.00
H278   H     0.94230   0.03500   0.86050   0.01267  Uiso   1.00
H279   H     0.78010   0.21320   0.89490   0.01267  Uiso   1.00
H280   H     0.79020   0.21140   0.86690   0.01267  Uiso   1.00
H281   H     0.50140   0.06260   0.09860   0.01267  Uiso   1.00
H282   H     0.50870   0.08130   0.12580   0.01267  Uiso   1.00
H283   H     0.21140   0.82800   0.87310   0.01267  Uiso   1.00
H284   H     0.13540   0.83420   0.87430   0.01267  Uiso   1.00
H285   H     0.05360   0.94120   0.90910   0.01267  Uiso   1.00
H286   H     0.11160   0.93890   0.89170   0.01267  Uiso   1.00
H287   H     0.53580   0.27350   0.05500   0.01267  Uiso   1.00
H288   H     0.36970   0.13410   0.05720   0.01267  Uiso   1.00
H289   H     0.40750   0.09000   0.01500   0.01267  Uiso   1.00
H290   H     0.46060   0.04410   0.97610   0.01267  Uiso   1.00
H291   H     0.52690   0.00160   0.93950   0.01267  Uiso   1.00
H292   H     0.66770   0.16450   0.95030   0.01267  Uiso   1.00
H293   H     0.36520   0.86000   0.96020   0.01267  Uiso   1.00
H294   H     0.15030   0.86560   0.95030   0.01267  Uiso   1.00
H295   H     0.13790   0.78570   0.98680   0.01267  Uiso   1.00
H296   H     0.14290   0.70680   0.02460   0.01267  Uiso   1.00
H297   H     0.15880   0.63900   0.06460   0.01267  Uiso   1.00
H298   H     0.37310   0.66200   0.05500   0.01267  Uiso   1.00
H299   H     0.00410   0.24200   0.94750   0.01267  Uiso   1.00
H300   H     0.87360   0.07420   0.96300   0.01267  Uiso   1.00
H301   H     0.93720   0.05310   0.00300   0.01267  Uiso   1.00
H302   H     0.00360   0.04030   0.04060   0.01267  Uiso   1.00
H303   H     0.08590   0.02530   0.07540   0.01267  Uiso   1.00
H304   H     0.20680   0.18420   0.04330   0.01267  Uiso   1.00
H305   H     0.35280   0.08020   0.80410   0.01267  Uiso   1.00
H306   H     0.36130   0.86770   0.81740   0.01267  Uiso   1.00
H307   H     0.42830   0.85550   0.77720   0.01267  Uiso   1.00
H308   H     0.47710   0.85390   0.73430   0.01267  Uiso   1.00
H309   H     0.54030   0.86300   0.69330   0.01267  Uiso   1.00
H310   H     0.54990   0.07640   0.70470   0.01267  Uiso   1.00
H311   H     0.53130   0.04410   0.80660   0.01267  Uiso   1.00
H312   H     0.68290   0.18300   0.83240   0.01267  Uiso   1.00
H313   H     0.65850   0.25500   0.79470   0.01267  Uiso   1.00
H314   H     0.64830   0.30370   0.75430   0.01267  Uiso   1.00
H315   H     0.63420   0.34960   0.71020   0.01267  Uiso   1.00
H316   H     0.47580   0.20440   0.69800   0.01267  Uiso   1.00
H317   H     0.88060   0.94600   0.79890   0.01267  Uiso   1.00
H318   H     0.74460   0.79400   0.82670   0.01267  Uiso   1.00
H319   H     0.76700   0.72800   0.78680   0.01267  Uiso   1.00
H320   H     0.77940   0.68030   0.74620   0.01267  Uiso   1.00
H321   H     0.80090   0.63440   0.70220   0.01267  Uiso   1.00
H322   H     0.94030   0.79540   0.68960   0.01267  Uiso   1.00
H323   H     0.44270   0.93930   0.61330   0.01267  Uiso   1.00
H324   H     0.44230   0.96500   0.63950   0.01267  Uiso   1.00
H325   H     0.28010   0.78680   0.60510   0.01267  Uiso   1.00
H326   H     0.29020   0.78860   0.63310   0.01267  Uiso   1.00
H327   H     0.00140   0.93740   0.40140   0.01267  Uiso   1.00
H328   H     0.00870   0.91870   0.37420   0.01267  Uiso   1.00
H329   H     0.71140   0.17200   0.62690   0.01267  Uiso   1.00
H330   H     0.63540   0.16580   0.62570   0.01267  Uiso   1.00
H331   H     0.55360   0.05880   0.59090   0.01267  Uiso   1.00
H332   H     0.61160   0.06110   0.60830   0.01267  Uiso   1.00
H333   H     0.03580   0.72650   0.44500   0.01267  Uiso   1.00
H334   H     0.86970   0.86590   0.44280   0.01267  Uiso   1.00
H335   H     0.90750   0.91000   0.48500   0.01267  Uiso   1.00
H336   H     0.96060   0.95590   0.52390   0.01267  Uiso   1.00
H337   H     0.02690   0.99840   0.56050   0.01267  Uiso   1.00
H338   H     0.16770   0.83550   0.54970   0.01267  Uiso   1.00
H339   H     0.86520   0.14000   0.53980   0.01267  Uiso   1.00
H340   H     0.65030   0.13440   0.54970   0.01267  Uiso   1.00
H341   H     0.63790   0.21430   0.51320   0.01267  Uiso   1.00
H342   H     0.64290   0.29320   0.47540   0.01267  Uiso   1.00
H343   H     0.65880   0.36100   0.43540   0.01267  Uiso   1.00
H344   H     0.87310   0.33800   0.44500   0.01267  Uiso   1.00
H345   H     0.50410   0.75800   0.55250   0.01267  Uiso   1.00
H346   H     0.37360   0.92580   0.53700   0.01267  Uiso   1.00
H347   H     0.43720   0.94690   0.49700   0.01267  Uiso   1.00
H348   H     0.50360   0.95970   0.45940   0.01267  Uiso   1.00
H349   H     0.58590   0.97470   0.42460   0.01267  Uiso   1.00
H350   H     0.70680   0.81580   0.45670   0.01267  Uiso   1.00
H351   H     0.85280   0.91980   0.69590   0.01267  Uiso   1.00
H352   H     0.86130   0.13230   0.68260   0.01267  Uiso   1.00
H353   H     0.92830   0.14450   0.72280   0.01267  Uiso   1.00
H354   H     0.97710   0.14610   0.76570   0.01267  Uiso   1.00
H355   H     0.04030   0.13700   0.80670   0.01267  Uiso   1.00
H356   H     0.04990   0.92360   0.79530   0.01267  Uiso   1.00
H357   H     0.03130   0.95590   0.69340   0.01267  Uiso   1.00
H358   H     0.18290   0.81700   0.66760   0.01267  Uiso   1.00
H359   H     0.15850   0.74500   0.70530   0.01267  Uiso   1.00
H360   H     0.14830   0.69630   0.74570   0.01267  Uiso   1.00
H361   H     0.13420   0.65040   0.78980   0.01267  Uiso   1.00
H362   H     0.97580   0.79560   0.80200   0.01267  Uiso   1.00
H363   H     0.38060   0.05400   0.70110   0.01267  Uiso   1.00
H364   H     0.24460   0.20600   0.67330   0.01267  Uiso   1.00
H365   H     0.26700   0.27200   0.71320   0.01267  Uiso   1.00
H366   H     0.27940   0.31970   0.75380   0.01267  Uiso   1.00
H367   H     0.30090   0.36560   0.79780   0.01267  Uiso   1.00
H368   H     0.44030   0.20460   0.81040   0.01267  Uiso   1.00
C1     C     0.92670   0.25610   0.08739   0.01267  Uiso   1.00
C2     C     0.00970   0.26350   0.04686   0.01267  Uiso   1.00
C3     C     0.95020   0.29090   0.06038   0.01267  Uiso   1.00
C4     C     0.91010   0.34680   0.04859   0.01267  Uiso   1.00
C5     C     0.93300   0.37290   0.02330   0.01267  Uiso   1.00
C6     C     0.99400   0.34370   0.01054   0.01267  Uiso   1.00
C7     C     0.02620   0.37120   0.98528   0.01267  Uiso   1.00
C8     C     0.00290   0.43240   0.97094   0.01267  Uiso   1.00
C9     C     0.04260   0.45810   0.94910   0.01267  Uiso   1.00
C10    C     0.10590   0.42300   0.94169   0.01267  Uiso   1.00
C11    C     0.12590   0.35980   0.95551   0.01267  Uiso   1.00
C12    C     0.15420   0.45070   0.91894   0.01267  Uiso   1.00
C13    C     0.77370   0.57300   0.92880   0.01267  Uiso   1.00
C14    C     0.81910   0.65500   0.96532   0.01267  Uiso   1.00
C15    C     0.75890   0.62640   0.95192   0.01267  Uiso   1.00
C16    C     0.69110   0.65050   0.95949   0.01267  Uiso   1.00
C17    C     0.68350   0.69940   0.98115   0.01267  Uiso   1.00
C18    C     0.74580   0.72510   0.99387   0.01267  Uiso   1.00
C19    C     0.74770   0.77430   0.01792   0.01267  Uiso   1.00
C20    C     0.68920   0.80160   0.03127   0.01267  Uiso   1.00
C21    C     0.69860   0.84280   0.05528   0.01267  Uiso   1.00
C22    C     0.76840   0.85540   0.06452   0.01267  Uiso   1.00
C23    C     0.82620   0.82830   0.04924   0.01267  Uiso   1.00
C24    C     0.78450   0.89980   0.08995   0.01267  Uiso   1.00
C25    C     0.39220   0.32880   0.92348   0.01267  Uiso   1.00
C26    C     0.49140   0.29730   0.95826   0.01267  Uiso   1.00
C27    C     0.43390   0.34100   0.95015   0.01267  Uiso   1.00
C28    C     0.41310   0.39690   0.96747   0.01267  Uiso   1.00
C29    C     0.45130   0.40990   0.99143   0.01267  Uiso   1.00
C30    C     0.51010   0.36740   0.99767   0.01267  Uiso   1.00
C31    C     0.55720   0.37970   0.02122   0.01267  Uiso   1.00
C32    C     0.54500   0.43120   0.04121   0.01267  Uiso   1.00
C33    C     0.59450   0.44030   0.06203   0.01267  Uiso   1.00
C34    C     0.65710   0.39820   0.06314   0.01267  Uiso   1.00
C35    C     0.66590   0.34520   0.04280   0.01267  Uiso   1.00
C36    C     0.71400   0.41390   0.08501   0.01267  Uiso   1.00
C37    C     0.79640   0.51590   0.83850   0.01267  Uiso   1.00
C38    C     0.86850   0.46540   0.79882   0.01267  Uiso   1.00
C39    C     0.84710   0.52480   0.81445   0.01267  Uiso   1.00
C40    C     0.87180   0.59200   0.80685   0.01267  Uiso   1.00
C41    C     0.91320   0.59910   0.78293   0.01267  Uiso   1.00
C42    C     0.93150   0.53780   0.76800   0.01267  Uiso   1.00
C43    C     0.97500   0.53900   0.74230   0.01267  Uiso   1.00
C44    C     0.99170   0.60120   0.72783   0.01267  Uiso   1.00
C45    C     0.03040   0.59590   0.70352   0.01267  Uiso   1.00
C46    C     0.05370   0.52880   0.69481   0.01267  Uiso   1.00
C47    C     0.03460   0.46880   0.71048   0.01267  Uiso   1.00
C48    C     0.09580   0.51590   0.66859   0.01267  Uiso   1.00
C49    C     0.13570   0.44990   0.84434   0.01267  Uiso   1.00
C50    C     0.05800   0.41400   0.80393   0.01267  Uiso   1.00
C51    C     0.11240   0.39640   0.82289   0.01267  Uiso   1.00
C52    C     0.14890   0.33170   0.81967   0.01267  Uiso   1.00
C53    C     0.13440   0.28860   0.79701   0.01267  Uiso   1.00
C54    C     0.08330   0.31150   0.77784   0.01267  Uiso   1.00
C55    C     0.07210   0.27440   0.75091   0.01267  Uiso   1.00
C56    C     0.11460   0.21660   0.74252   0.01267  Uiso   1.00
C57    C     0.10610   0.18900   0.71609   0.01267  Uiso   1.00
C58    C     0.05500   0.22030   0.69873   0.01267  Uiso   1.00
C59    C     0.01170   0.27620   0.70907   0.01267  Uiso   1.00
C60    C     0.04310   0.19330   0.66960   0.01267  Uiso   1.00
C61    C     0.28770   0.57290   0.84039   0.01267  Uiso   1.00
C62    C     0.35620   0.59730   0.79628   0.01267  Uiso   1.00
C63    C     0.30670   0.61970   0.81638   0.01267  Uiso   1.00
C64    C     0.27460   0.68740   0.81331   0.01267  Uiso   1.00
C65    C     0.28860   0.72720   0.78936   0.01267  Uiso   1.00
C66    C     0.33510   0.69900   0.76964   0.01267  Uiso   1.00
C67    C     0.34840   0.73470   0.74264   0.01267  Uiso   1.00
C68    C     0.31160   0.79680   0.73458   0.01267  Uiso   1.00
C69    C     0.32450   0.82430   0.70813   0.01267  Uiso   1.00
C70    C     0.37230   0.78890   0.69153   0.01267  Uiso   1.00
C71    C     0.40790   0.72800   0.70110   0.01267  Uiso   1.00
C72    C     0.39030   0.81500   0.66243   0.01267  Uiso   1.00
C73    C     0.42670   0.74390   0.41261   0.01267  Uiso   1.00
C74    C     0.50970   0.73650   0.45314   0.01267  Uiso   1.00
C75    C     0.45020   0.70910   0.43962   0.01267  Uiso   1.00
C76    C     0.41010   0.65320   0.45141   0.01267  Uiso   1.00
C77    C     0.43300   0.62710   0.47670   0.01267  Uiso   1.00
C78    C     0.49400   0.65630   0.48946   0.01267  Uiso   1.00
C79    C     0.52620   0.62880   0.51472   0.01267  Uiso   1.00
C80    C     0.50290   0.56760   0.52906   0.01267  Uiso   1.00
C81    C     0.54260   0.54190   0.55090   0.01267  Uiso   1.00
C82    C     0.60590   0.57700   0.55831   0.01267  Uiso   1.00
C83    C     0.62590   0.64020   0.54449   0.01267  Uiso   1.00
C84    C     0.65420   0.54930   0.58106   0.01267  Uiso   1.00
C85    C     0.27370   0.42700   0.57120   0.01267  Uiso   1.00
C86    C     0.31910   0.34500   0.53468   0.01267  Uiso   1.00
C87    C     0.25890   0.37360   0.54808   0.01267  Uiso   1.00
C88    C     0.19110   0.34950   0.54051   0.01267  Uiso   1.00
C89    C     0.18350   0.30060   0.51885   0.01267  Uiso   1.00
C90    C     0.24580   0.27490   0.50613   0.01267  Uiso   1.00
C91    C     0.24770   0.22570   0.48208   0.01267  Uiso   1.00
C92    C     0.18920   0.19840   0.46873   0.01267  Uiso   1.00
C93    C     0.19860   0.15720   0.44472   0.01267  Uiso   1.00
C94    C     0.26840   0.14460   0.43548   0.01267  Uiso   1.00
C95    C     0.32620   0.17170   0.45076   0.01267  Uiso   1.00
C96    C     0.28450   0.10020   0.41005   0.01267  Uiso   1.00
C97    C     0.89220   0.67120   0.57652   0.01267  Uiso   1.00
C98    C     0.99140   0.70270   0.54174   0.01267  Uiso   1.00
C99    C     0.93390   0.65900   0.54985   0.01267  Uiso   1.00
C100   C     0.91310   0.60310   0.53253   0.01267  Uiso   1.00
C101   C     0.95130   0.59010   0.50857   0.01267  Uiso   1.00
C102   C     0.01010   0.63260   0.50233   0.01267  Uiso   1.00
C103   C     0.05720   0.62030   0.47878   0.01267  Uiso   1.00
C104   C     0.04500   0.56880   0.45879   0.01267  Uiso   1.00
C105   C     0.09450   0.55970   0.43797   0.01267  Uiso   1.00
C106   C     0.15710   0.60180   0.43686   0.01267  Uiso   1.00
C107   C     0.16590   0.65480   0.45720   0.01267  Uiso   1.00
C108   C     0.21400   0.58610   0.41499   0.01267  Uiso   1.00
C109   C     0.29640   0.48410   0.66150   0.01267  Uiso   1.00
C110   C     0.36850   0.53460   0.70118   0.01267  Uiso   1.00
C111   C     0.34710   0.47520   0.68555   0.01267  Uiso   1.00
C112   C     0.37180   0.40800   0.69315   0.01267  Uiso   1.00
C113   C     0.41320   0.40090   0.71707   0.01267  Uiso   1.00
C114   C     0.43150   0.46220   0.73200   0.01267  Uiso   1.00
C115   C     0.47500   0.46100   0.75770   0.01267  Uiso   1.00
C116   C     0.49170   0.39880   0.77217   0.01267  Uiso   1.00
C117   C     0.53040   0.40410   0.79648   0.01267  Uiso   1.00
C118   C     0.55370   0.47120   0.80519   0.01267  Uiso   1.00
C119   C     0.53460   0.53120   0.78952   0.01267  Uiso   1.00
C120   C     0.59580   0.48410   0.83141   0.01267  Uiso   1.00
C121   C     0.63570   0.55010   0.65566   0.01267  Uiso   1.00
C122   C     0.55800   0.58600   0.69607   0.01267  Uiso   1.00
C123   C     0.61240   0.60360   0.67711   0.01267  Uiso   1.00
C124   C     0.64890   0.66830   0.68033   0.01267  Uiso   1.00
C125   C     0.63440   0.71140   0.70299   0.01267  Uiso   1.00
C126   C     0.58330   0.68850   0.72216   0.01267  Uiso   1.00
C127   C     0.57210   0.72560   0.74909   0.01267  Uiso   1.00
C128   C     0.61460   0.78340   0.75748   0.01267  Uiso   1.00
C129   C     0.60610   0.81100   0.78391   0.01267  Uiso   1.00
C130   C     0.55500   0.77970   0.80127   0.01267  Uiso   1.00
C131   C     0.51170   0.72380   0.79093   0.01267  Uiso   1.00
C132   C     0.54310   0.80670   0.83040   0.01267  Uiso   1.00
C133   C     0.78770   0.42710   0.65961   0.01267  Uiso   1.00
C134   C     0.85620   0.40270   0.70372   0.01267  Uiso   1.00
C135   C     0.80670   0.38030   0.68362   0.01267  Uiso   1.00
C136   C     0.77460   0.31260   0.68669   0.01267  Uiso   1.00
C137   C     0.78860   0.27280   0.71064   0.01267  Uiso   1.00
C138   C     0.83510   0.30100   0.73036   0.01267  Uiso   1.00
C139   C     0.84840   0.26530   0.75736   0.01267  Uiso   1.00
C140   C     0.81160   0.20320   0.76542   0.01267  Uiso   1.00
C141   C     0.82450   0.17570   0.79187   0.01267  Uiso   1.00
C142   C     0.87230   0.21110   0.80847   0.01267  Uiso   1.00
C143   C     0.90790   0.27200   0.79890   0.01267  Uiso   1.00
C144   C     0.89030   0.18500   0.83757   0.01267  Uiso   1.00
C145   C     0.57330   0.75610   0.91261   0.01267  Uiso   1.00
C146   C     0.49030   0.76350   0.95314   0.01267  Uiso   1.00
C147   C     0.54980   0.79090   0.93962   0.01267  Uiso   1.00
C148   C     0.58990   0.84680   0.95141   0.01267  Uiso   1.00
C149   C     0.56700   0.87290   0.97670   0.01267  Uiso   1.00
C150   C     0.50600   0.84370   0.98946   0.01267  Uiso   1.00
C151   C     0.47380   0.87120   0.01472   0.01267  Uiso   1.00
C152   C     0.49710   0.93240   0.02906   0.01267  Uiso   1.00
C153   C     0.45740   0.95810   0.05090   0.01267  Uiso   1.00
C154   C     0.39410   0.92300   0.05831   0.01267  Uiso   1.00
C155   C     0.37410   0.85980   0.04449   0.01267  Uiso   1.00
C156   C     0.34580   0.95070   0.08106   0.01267  Uiso   1.00
C157   C     0.72630   0.07300   0.07120   0.01267  Uiso   1.00
C158   C     0.68090   0.15500   0.03468   0.01267  Uiso   1.00
C159   C     0.74110   0.12640   0.04808   0.01267  Uiso   1.00
C160   C     0.80890   0.15050   0.04051   0.01267  Uiso   1.00
C161   C     0.81650   0.19940   0.01885   0.01267  Uiso   1.00
C162   C     0.75420   0.22510   0.00613   0.01267  Uiso   1.00
C163   C     0.75230   0.27430   0.98208   0.01267  Uiso   1.00
C164   C     0.81080   0.30160   0.96873   0.01267  Uiso   1.00
C165   C     0.80140   0.34280   0.94472   0.01267  Uiso   1.00
C166   C     0.73160   0.35540   0.93548   0.01267  Uiso   1.00
C167   C     0.67380   0.32830   0.95076   0.01267  Uiso   1.00
C168   C     0.71550   0.39980   0.91005   0.01267  Uiso   1.00
C169   C     0.10780   0.82880   0.07652   0.01267  Uiso   1.00
C170   C     0.00860   0.79730   0.04174   0.01267  Uiso   1.00
C171   C     0.06610   0.84100   0.04985   0.01267  Uiso   1.00
C172   C     0.08690   0.89690   0.03253   0.01267  Uiso   1.00
C173   C     0.04870   0.90990   0.00857   0.01267  Uiso   1.00
C174   C     0.98990   0.86740   0.00233   0.01267  Uiso   1.00
C175   C     0.94280   0.87970   0.97878   0.01267  Uiso   1.00
C176   C     0.95500   0.93120   0.95879   0.01267  Uiso   1.00
C177   C     0.90550   0.94030   0.93797   0.01267  Uiso   1.00
C178   C     0.84290   0.89820   0.93686   0.01267  Uiso   1.00
C179   C     0.83410   0.84520   0.95720   0.01267  Uiso   1.00
C180   C     0.78600   0.91390   0.91499   0.01267  Uiso   1.00
C181   C     0.70360   0.01590   0.16150   0.01267  Uiso   1.00
C182   C     0.63150   0.96540   0.20118   0.01267  Uiso   1.00
C183   C     0.65290   0.02480   0.18555   0.01267  Uiso   1.00
C184   C     0.62820   0.09200   0.19315   0.01267  Uiso   1.00
C185   C     0.58680   0.09910   0.21707   0.01267  Uiso   1.00
C186   C     0.56850   0.03780   0.23200   0.01267  Uiso   1.00
C187   C     0.52500   0.03900   0.25770   0.01267  Uiso   1.00
C188   C     0.50830   0.10120   0.27217   0.01267  Uiso   1.00
C189   C     0.46960   0.09590   0.29648   0.01267  Uiso   1.00
C190   C     0.44630   0.02880   0.30519   0.01267  Uiso   1.00
C191   C     0.46540   0.96880   0.28952   0.01267  Uiso   1.00
C192   C     0.40420   0.01590   0.33141   0.01267  Uiso   1.00
C193   C     0.36430   0.94990   0.15566   0.01267  Uiso   1.00
C194   C     0.44200   0.91400   0.19607   0.01267  Uiso   1.00
C195   C     0.38760   0.89640   0.17711   0.01267  Uiso   1.00
C196   C     0.35110   0.83170   0.18033   0.01267  Uiso   1.00
C197   C     0.36560   0.78860   0.20299   0.01267  Uiso   1.00
C198   C     0.41670   0.81150   0.22216   0.01267  Uiso   1.00
C199   C     0.42790   0.77440   0.24909   0.01267  Uiso   1.00
C200   C     0.38540   0.71660   0.25748   0.01267  Uiso   1.00
C201   C     0.39390   0.68900   0.28391   0.01267  Uiso   1.00
C202   C     0.44500   0.72030   0.30127   0.01267  Uiso   1.00
C203   C     0.48830   0.77620   0.29093   0.01267  Uiso   1.00
C204   C     0.45690   0.69330   0.33040   0.01267  Uiso   1.00
C205   C     0.21230   0.07290   0.15961   0.01267  Uiso   1.00
C206   C     0.14380   0.09730   0.20372   0.01267  Uiso   1.00
C207   C     0.19330   0.11970   0.18362   0.01267  Uiso   1.00
C208   C     0.22540   0.18740   0.18669   0.01267  Uiso   1.00
C209   C     0.21140   0.22720   0.21064   0.01267  Uiso   1.00
C210   C     0.16490   0.19900   0.23036   0.01267  Uiso   1.00
C211   C     0.15160   0.23470   0.25736   0.01267  Uiso   1.00
C212   C     0.18840   0.29680   0.26542   0.01267  Uiso   1.00
C213   C     0.17550   0.32430   0.29187   0.01267  Uiso   1.00
C214   C     0.12770   0.28890   0.30847   0.01267  Uiso   1.00
C215   C     0.09210   0.22800   0.29890   0.01267  Uiso   1.00
C216   C     0.10970   0.31500   0.33757   0.01267  Uiso   1.00
C217   C     0.07330   0.24390   0.58739   0.01267  Uiso   1.00
C218   C     0.99030   0.23650   0.54686   0.01267  Uiso   1.00
C219   C     0.04980   0.20910   0.56038   0.01267  Uiso   1.00
C220   C     0.08990   0.15320   0.54859   0.01267  Uiso   1.00
C221   C     0.06700   0.12710   0.52330   0.01267  Uiso   1.00
C222   C     0.00600   0.15630   0.51054   0.01267  Uiso   1.00
C223   C     0.97380   0.12880   0.48528   0.01267  Uiso   1.00
C224   C     0.99710   0.06760   0.47094   0.01267  Uiso   1.00
C225   C     0.95740   0.04190   0.44910   0.01267  Uiso   1.00
C226   C     0.89410   0.07700   0.44169   0.01267  Uiso   1.00
C227   C     0.87410   0.14020   0.45551   0.01267  Uiso   1.00
C228   C     0.84580   0.04930   0.41894   0.01267  Uiso   1.00
C229   C     0.22630   0.92700   0.42880   0.01267  Uiso   1.00
C230   C     0.18090   0.84500   0.46532   0.01267  Uiso   1.00
C231   C     0.24110   0.87360   0.45192   0.01267  Uiso   1.00
C232   C     0.30890   0.84950   0.45949   0.01267  Uiso   1.00
C233   C     0.31650   0.80060   0.48115   0.01267  Uiso   1.00
C234   C     0.25420   0.77490   0.49387   0.01267  Uiso   1.00
C235   C     0.25230   0.72570   0.51792   0.01267  Uiso   1.00
C236   C     0.31080   0.69840   0.53127   0.01267  Uiso   1.00
C237   C     0.30140   0.65720   0.55528   0.01267  Uiso   1.00
C238   C     0.23160   0.64460   0.56452   0.01267  Uiso   1.00
C239   C     0.17380   0.67170   0.54924   0.01267  Uiso   1.00
C240   C     0.21550   0.60020   0.58995   0.01267  Uiso   1.00
C241   C     0.60780   0.17120   0.42348   0.01267  Uiso   1.00
C242   C     0.50860   0.20270   0.45826   0.01267  Uiso   1.00
C243   C     0.56610   0.15900   0.45015   0.01267  Uiso   1.00
C244   C     0.58690   0.10310   0.46747   0.01267  Uiso   1.00
C245   C     0.54870   0.09010   0.49143   0.01267  Uiso   1.00
C246   C     0.48990   0.13260   0.49767   0.01267  Uiso   1.00
C247   C     0.44280   0.12030   0.52122   0.01267  Uiso   1.00
C248   C     0.45500   0.06880   0.54121   0.01267  Uiso   1.00
C249   C     0.40550   0.05970   0.56203   0.01267  Uiso   1.00
C250   C     0.34290   0.10180   0.56314   0.01267  Uiso   1.00
C251   C     0.33410   0.15480   0.54280   0.01267  Uiso   1.00
C252   C     0.28600   0.08610   0.58501   0.01267  Uiso   1.00
C253   C     0.20360   0.98410   0.33850   0.01267  Uiso   1.00
C254   C     0.13150   0.03460   0.29882   0.01267  Uiso   1.00
C255   C     0.15290   0.97520   0.31445   0.01267  Uiso   1.00
C256   C     0.12820   0.90800   0.30685   0.01267  Uiso   1.00
C257   C     0.08680   0.90090   0.28293   0.01267  Uiso   1.00
C258   C     0.06850   0.96220   0.26800   0.01267  Uiso   1.00
C259   C     0.02500   0.96100   0.24230   0.01267  Uiso   1.00
C260   C     0.00830   0.89880   0.22783   0.01267  Uiso   1.00
C261   C     0.96960   0.90410   0.20352   0.01267  Uiso   1.00
C262   C     0.94630   0.97120   0.19481   0.01267  Uiso   1.00
C263   C     0.96540   0.03120   0.21048   0.01267  Uiso   1.00
C264   C     0.90420   0.98410   0.16859   0.01267  Uiso   1.00
C265   C     0.86430   0.05010   0.34434   0.01267  Uiso   1.00
C266   C     0.94200   0.08600   0.30393   0.01267  Uiso   1.00
C267   C     0.88760   0.10360   0.32289   0.01267  Uiso   1.00
C268   C     0.85110   0.16830   0.31967   0.01267  Uiso   1.00
C269   C     0.86560   0.21140   0.29701   0.01267  Uiso   1.00
C270   C     0.91670   0.18850   0.27784   0.01267  Uiso   1.00
C271   C     0.92790   0.22560   0.25091   0.01267  Uiso   1.00
C272   C     0.88540   0.28340   0.24252   0.01267  Uiso   1.00
C273   C     0.89390   0.31100   0.21609   0.01267  Uiso   1.00
C274   C     0.94500   0.27970   0.19873   0.01267  Uiso   1.00
C275   C     0.98830   0.22380   0.20907   0.01267  Uiso   1.00
C276   C     0.95690   0.30670   0.16960   0.01267  Uiso   1.00
C277   C     0.71230   0.92710   0.34039   0.01267  Uiso   1.00
C278   C     0.64380   0.90270   0.29628   0.01267  Uiso   1.00
C279   C     0.69330   0.88030   0.31638   0.01267  Uiso   1.00
C280   C     0.72540   0.81260   0.31331   0.01267  Uiso   1.00
C281   C     0.71140   0.77280   0.28936   0.01267  Uiso   1.00
C282   C     0.66490   0.80100   0.26964   0.01267  Uiso   1.00
C283   C     0.65160   0.76530   0.24264   0.01267  Uiso   1.00
C284   C     0.68840   0.70320   0.23458   0.01267  Uiso   1.00
C285   C     0.67550   0.67570   0.20813   0.01267  Uiso   1.00
C286   C     0.62770   0.71110   0.19153   0.01267  Uiso   1.00
C287   C     0.59210   0.77200   0.20110   0.01267  Uiso   1.00
C288   C     0.60970   0.68500   0.16243   0.01267  Uiso   1.00
C289   C     0.07330   0.74390   0.91261   0.01267  Uiso   1.00
C290   C     0.99030   0.73650   0.95314   0.01267  Uiso   1.00
C291   C     0.04980   0.70910   0.93962   0.01267  Uiso   1.00
C292   C     0.08990   0.65320   0.95141   0.01267  Uiso   1.00
C293   C     0.06700   0.62710   0.97670   0.01267  Uiso   1.00
C294   C     0.00600   0.65630   0.98946   0.01267  Uiso   1.00
C295   C     0.97380   0.62880   0.01472   0.01267  Uiso   1.00
C296   C     0.99710   0.56760   0.02906   0.01267  Uiso   1.00
C297   C     0.95740   0.54190   0.05090   0.01267  Uiso   1.00
C298   C     0.89410   0.57700   0.05831   0.01267  Uiso   1.00
C299   C     0.87410   0.64020   0.04449   0.01267  Uiso   1.00
C300   C     0.84580   0.54930   0.08106   0.01267  Uiso   1.00
C301   C     0.22630   0.42700   0.07120   0.01267  Uiso   1.00
C302   C     0.18090   0.34500   0.03468   0.01267  Uiso   1.00
C303   C     0.24110   0.37360   0.04808   0.01267  Uiso   1.00
C304   C     0.30890   0.34950   0.04051   0.01267  Uiso   1.00
C305   C     0.31650   0.30060   0.01885   0.01267  Uiso   1.00
C306   C     0.25420   0.27490   0.00613   0.01267  Uiso   1.00
C307   C     0.25230   0.22570   0.98208   0.01267  Uiso   1.00
C308   C     0.31080   0.19840   0.96873   0.01267  Uiso   1.00
C309   C     0.30140   0.15720   0.94472   0.01267  Uiso   1.00
C310   C     0.23160   0.14460   0.93548   0.01267  Uiso   1.00
C311   C     0.17380   0.17170   0.95076   0.01267  Uiso   1.00
C312   C     0.21550   0.10020   0.91005   0.01267  Uiso   1.00
C313   C     0.60780   0.67120   0.07652   0.01267  Uiso   1.00
C314   C     0.50860   0.70270   0.04174   0.01267  Uiso   1.00
C315   C     0.56610   0.65900   0.04985   0.01267  Uiso   1.00
C316   C     0.58690   0.60310   0.03253   0.01267  Uiso   1.00
C317   C     0.54870   0.59010   0.00857   0.01267  Uiso   1.00
C318   C     0.48990   0.63260   0.00233   0.01267  Uiso   1.00
C319   C     0.44280   0.62030   0.97878   0.01267  Uiso   1.00
C320   C     0.45500   0.56880   0.95879   0.01267  Uiso   1.00
C321   C     0.40550   0.55970   0.93797   0.01267  Uiso   1.00
C322   C     0.34290   0.60180   0.93686   0.01267  Uiso   1.00
C323   C     0.33410   0.65480   0.95720   0.01267  Uiso   1.00
C324   C     0.28600   0.58610   0.91499   0.01267  Uiso   1.00
C325   C     0.20360   0.48410   0.16150   0.01267  Uiso   1.00
C326   C     0.13150   0.53460   0.20118   0.01267  Uiso   1.00
C327   C     0.15290   0.47520   0.18555   0.01267  Uiso   1.00
C328   C     0.12820   0.40800   0.19315   0.01267  Uiso   1.00
C329   C     0.08680   0.40090   0.21707   0.01267  Uiso   1.00
C330   C     0.06850   0.46220   0.23200   0.01267  Uiso   1.00
C331   C     0.02500   0.46100   0.25770   0.01267  Uiso   1.00
C332   C     0.00830   0.39880   0.27217   0.01267  Uiso   1.00
C333   C     0.96960   0.40410   0.29648   0.01267  Uiso   1.00
C334   C     0.94630   0.47120   0.30519   0.01267  Uiso   1.00
C335   C     0.96540   0.53120   0.28952   0.01267  Uiso   1.00
C336   C     0.90420   0.48410   0.33141   0.01267  Uiso   1.00
C337   C     0.86430   0.55010   0.15566   0.01267  Uiso   1.00
C338   C     0.94200   0.58600   0.19607   0.01267  Uiso   1.00
C339   C     0.88760   0.60360   0.17711   0.01267  Uiso   1.00
C340   C     0.85110   0.66830   0.18033   0.01267  Uiso   1.00
C341   C     0.86560   0.71140   0.20299   0.01267  Uiso   1.00
C342   C     0.91670   0.68850   0.22216   0.01267  Uiso   1.00
C343   C     0.92790   0.72560   0.24909   0.01267  Uiso   1.00
C344   C     0.88540   0.78340   0.25748   0.01267  Uiso   1.00
C345   C     0.89390   0.81100   0.28391   0.01267  Uiso   1.00
C346   C     0.94500   0.77970   0.30127   0.01267  Uiso   1.00
C347   C     0.98830   0.72380   0.29093   0.01267  Uiso   1.00
C348   C     0.95690   0.80670   0.33040   0.01267  Uiso   1.00
C349   C     0.71230   0.42710   0.15961   0.01267  Uiso   1.00
C350   C     0.64380   0.40270   0.20372   0.01267  Uiso   1.00
C351   C     0.69330   0.38030   0.18362   0.01267  Uiso   1.00
C352   C     0.72540   0.31260   0.18669   0.01267  Uiso   1.00
C353   C     0.71140   0.27280   0.21064   0.01267  Uiso   1.00
C354   C     0.66490   0.30100   0.23036   0.01267  Uiso   1.00
C355   C     0.65160   0.26530   0.25736   0.01267  Uiso   1.00
C356   C     0.68840   0.20320   0.26542   0.01267  Uiso   1.00
C357   C     0.67550   0.17570   0.29187   0.01267  Uiso   1.00
C358   C     0.62770   0.21110   0.30847   0.01267  Uiso   1.00
C359   C     0.59210   0.27200   0.29890   0.01267  Uiso   1.00
C360   C     0.60970   0.18500   0.33757   0.01267  Uiso   1.00
C361   C     0.57330   0.25610   0.58739   0.01267  Uiso   1.00
C362   C     0.49030   0.26350   0.54686   0.01267  Uiso   1.00
C363   C     0.54980   0.29090   0.56038   0.01267  Uiso   1.00
C364   C     0.58990   0.34680   0.54859   0.01267  Uiso   1.00
C365   C     0.56700   0.37290   0.52330   0.01267  Uiso   1.00
C366   C     0.50600   0.34370   0.51054   0.01267  Uiso   1.00
C367   C     0.47380   0.37120   0.48528   0.01267  Uiso   1.00
C368   C     0.49710   0.43240   0.47094   0.01267  Uiso   1.00
C369   C     0.45740   0.45810   0.44910   0.01267  Uiso   1.00
C370   C     0.39410   0.42300   0.44169   0.01267  Uiso   1.00
C371   C     0.37410   0.35980   0.45551   0.01267  Uiso   1.00
C372   C     0.34580   0.45070   0.41894   0.01267  Uiso   1.00
C373   C     0.72630   0.57300   0.42880   0.01267  Uiso   1.00
C374   C     0.68090   0.65500   0.46532   0.01267  Uiso   1.00
C375   C     0.74110   0.62640   0.45192   0.01267  Uiso   1.00
C376   C     0.80890   0.65050   0.45949   0.01267  Uiso   1.00
C377   C     0.81650   0.69940   0.48115   0.01267  Uiso   1.00
C378   C     0.75420   0.72510   0.49387   0.01267  Uiso   1.00
C379   C     0.75230   0.77430   0.51792   0.01267  Uiso   1.00
C380   C     0.81080   0.80160   0.53127   0.01267  Uiso   1.00
C381   C     0.80140   0.84280   0.55528   0.01267  Uiso   1.00
C382   C     0.73160   0.85540   0.56452   0.01267  Uiso   1.00
C383   C     0.67380   0.82830   0.54924   0.01267  Uiso   1.00
C384   C     0.71550   0.89980   0.58995   0.01267  Uiso   1.00
C385   C     0.10780   0.32880   0.42348   0.01267  Uiso   1.00
C386   C     0.00860   0.29730   0.45826   0.01267  Uiso   1.00
C387   C     0.06610   0.34100   0.45015   0.01267  Uiso   1.00
C388   C     0.08690   0.39690   0.46747   0.01267  Uiso   1.00
C389   C     0.04870   0.40990   0.49143   0.01267  Uiso   1.00
C390   C     0.98990   0.36740   0.49767   0.01267  Uiso   1.00
C391   C     0.94280   0.37970   0.52122   0.01267  Uiso   1.00
C392   C     0.95500   0.43120   0.54121   0.01267  Uiso   1.00
C393   C     0.90550   0.44030   0.56203   0.01267  Uiso   1.00
C394   C     0.84290   0.39820   0.56314   0.01267  Uiso   1.00
C395   C     0.83410   0.34520   0.54280   0.01267  Uiso   1.00
C396   C     0.78600   0.41390   0.58501   0.01267  Uiso   1.00
C397   C     0.70360   0.51590   0.33850   0.01267  Uiso   1.00
C398   C     0.63150   0.46540   0.29882   0.01267  Uiso   1.00
C399   C     0.65290   0.52480   0.31445   0.01267  Uiso   1.00
C400   C     0.62820   0.59200   0.30685   0.01267  Uiso   1.00
C401   C     0.58680   0.59910   0.28293   0.01267  Uiso   1.00
C402   C     0.56850   0.53780   0.26800   0.01267  Uiso   1.00
C403   C     0.52500   0.53900   0.24230   0.01267  Uiso   1.00
C404   C     0.50830   0.60120   0.22783   0.01267  Uiso   1.00
C405   C     0.46960   0.59590   0.20352   0.01267  Uiso   1.00
C406   C     0.44630   0.52880   0.19481   0.01267  Uiso   1.00
C407   C     0.46540   0.46880   0.21048   0.01267  Uiso   1.00
C408   C     0.40420   0.51590   0.16859   0.01267  Uiso   1.00
C409   C     0.36430   0.44990   0.34434   0.01267  Uiso   1.00
C410   C     0.44200   0.41400   0.30393   0.01267  Uiso   1.00
C411   C     0.38760   0.39640   0.32289   0.01267  Uiso   1.00
C412   C     0.35110   0.33170   0.31967   0.01267  Uiso   1.00
C413   C     0.36560   0.28860   0.29701   0.01267  Uiso   1.00
C414   C     0.41670   0.31150   0.27784   0.01267  Uiso   1.00
C415   C     0.42790   0.27440   0.25091   0.01267  Uiso   1.00
C416   C     0.38540   0.21660   0.24252   0.01267  Uiso   1.00
C417   C     0.39390   0.18900   0.21609   0.01267  Uiso   1.00
C418   C     0.44500   0.22030   0.19873   0.01267  Uiso   1.00
C419   C     0.48830   0.27620   0.20907   0.01267  Uiso   1.00
C420   C     0.45690   0.19330   0.16960   0.01267  Uiso   1.00
C421   C     0.21230   0.57290   0.34039   0.01267  Uiso   1.00
C422   C     0.14380   0.59730   0.29628   0.01267  Uiso   1.00
C423   C     0.19330   0.61970   0.31638   0.01267  Uiso   1.00
C424   C     0.22540   0.68740   0.31331   0.01267  Uiso   1.00
C425   C     0.21140   0.72720   0.28936   0.01267  Uiso   1.00
C426   C     0.16490   0.69900   0.26964   0.01267  Uiso   1.00
C427   C     0.15160   0.73470   0.24264   0.01267  Uiso   1.00
C428   C     0.18840   0.79680   0.23458   0.01267  Uiso   1.00
C429   C     0.17550   0.82430   0.20813   0.01267  Uiso   1.00
C430   C     0.12770   0.78890   0.19153   0.01267  Uiso   1.00
C431   C     0.09210   0.72800   0.20110   0.01267  Uiso   1.00
C432   C     0.10970   0.81500   0.16243   0.01267  Uiso   1.00
C433   C     0.42670   0.24390   0.08739   0.01267  Uiso   1.00
C434   C     0.50970   0.23650   0.04686   0.01267  Uiso   1.00
C435   C     0.45020   0.20910   0.06038   0.01267  Uiso   1.00
C436   C     0.41010   0.15320   0.04859   0.01267  Uiso   1.00
C437   C     0.43300   0.12710   0.02330   0.01267  Uiso   1.00
C438   C     0.49400   0.15630   0.01054   0.01267  Uiso   1.00
C439   C     0.52620   0.12880   0.98528   0.01267  Uiso   1.00
C440   C     0.50290   0.06760   0.97094   0.01267  Uiso   1.00
C441   C     0.54260   0.04190   0.94910   0.01267  Uiso   1.00
C442   C     0.60590   0.07700   0.94169   0.01267  Uiso   1.00
C443   C     0.62590   0.14020   0.95551   0.01267  Uiso   1.00
C444   C     0.65420   0.04930   0.91894   0.01267  Uiso   1.00
C445   C     0.27370   0.92700   0.92880   0.01267  Uiso   1.00
C446   C     0.31910   0.84500   0.96532   0.01267  Uiso   1.00
C447   C     0.25890   0.87360   0.95192   0.01267  Uiso   1.00
C448   C     0.19110   0.84950   0.95949   0.01267  Uiso   1.00
C449   C     0.18350   0.80060   0.98115   0.01267  Uiso   1.00
C450   C     0.24580   0.77490   0.99387   0.01267  Uiso   1.00
C451   C     0.24770   0.72570   0.01792   0.01267  Uiso   1.00
C452   C     0.18920   0.69840   0.03127   0.01267  Uiso   1.00
C453   C     0.19860   0.65720   0.05528   0.01267  Uiso   1.00
C454   C     0.26840   0.64460   0.06452   0.01267  Uiso   1.00
C455   C     0.32620   0.67170   0.04924   0.01267  Uiso   1.00
C456   C     0.28450   0.60020   0.08995   0.01267  Uiso   1.00
C457   C     0.89220   0.17120   0.92348   0.01267  Uiso   1.00
C458   C     0.99140   0.20270   0.95826   0.01267  Uiso   1.00
C459   C     0.93390   0.15900   0.95015   0.01267  Uiso   1.00
C460   C     0.91310   0.10310   0.96747   0.01267  Uiso   1.00
C461   C     0.95130   0.09010   0.99143   0.01267  Uiso   1.00
C462   C     0.01010   0.13260   0.99767   0.01267  Uiso   1.00
C463   C     0.05720   0.12030   0.02122   0.01267  Uiso   1.00
C464   C     0.04500   0.06880   0.04121   0.01267  Uiso   1.00
C465   C     0.09450   0.05970   0.06203   0.01267  Uiso   1.00
C466   C     0.15710   0.10180   0.06314   0.01267  Uiso   1.00
C467   C     0.16590   0.15480   0.04280   0.01267  Uiso   1.00
C468   C     0.21400   0.08610   0.08501   0.01267  Uiso   1.00
C469   C     0.29640   0.98410   0.83850   0.01267  Uiso   1.00
C470   C     0.36850   0.03460   0.79882   0.01267  Uiso   1.00
C471   C     0.34710   0.97520   0.81445   0.01267  Uiso   1.00
C472   C     0.37180   0.90800   0.80685   0.01267  Uiso   1.00
C473   C     0.41320   0.90090   0.78293   0.01267  Uiso   1.00
C474   C     0.43150   0.96220   0.76800   0.01267  Uiso   1.00
C475   C     0.47500   0.96100   0.74230   0.01267  Uiso   1.00
C476   C     0.49170   0.89880   0.72783   0.01267  Uiso   1.00
C477   C     0.53040   0.90410   0.70352   0.01267  Uiso   1.00
C478   C     0.55370   0.97120   0.69481   0.01267  Uiso   1.00
C479   C     0.53460   0.03120   0.71048   0.01267  Uiso   1.00
C480   C     0.59580   0.98410   0.66859   0.01267  Uiso   1.00
C481   C     0.63570   0.05010   0.84434   0.01267  Uiso   1.00
C482   C     0.55800   0.08600   0.80393   0.01267  Uiso   1.00
C483   C     0.61240   0.10360   0.82289   0.01267  Uiso   1.00
C484   C     0.64890   0.16830   0.81967   0.01267  Uiso   1.00
C485   C     0.63440   0.21140   0.79701   0.01267  Uiso   1.00
C486   C     0.58330   0.18850   0.77784   0.01267  Uiso   1.00
C487   C     0.57210   0.22560   0.75091   0.01267  Uiso   1.00
C488   C     0.61460   0.28340   0.74252   0.01267  Uiso   1.00
C489   C     0.60610   0.31100   0.71609   0.01267  Uiso   1.00
C490   C     0.55500   0.27970   0.69873   0.01267  Uiso   1.00
C491   C     0.51170   0.22380   0.70907   0.01267  Uiso   1.00
C492   C     0.54310   0.30670   0.66960   0.01267  Uiso   1.00
C493   C     0.78770   0.92710   0.84039   0.01267  Uiso   1.00
C494   C     0.85620   0.90270   0.79628   0.01267  Uiso   1.00
C495   C     0.80670   0.88030   0.81638   0.01267  Uiso   1.00
C496   C     0.77460   0.81260   0.81331   0.01267  Uiso   1.00
C497   C     0.78860   0.77280   0.78936   0.01267  Uiso   1.00
C498   C     0.83510   0.80100   0.76964   0.01267  Uiso   1.00
C499   C     0.84840   0.76530   0.74264   0.01267  Uiso   1.00
C500   C     0.81160   0.70320   0.73458   0.01267  Uiso   1.00
C501   C     0.82450   0.67570   0.70813   0.01267  Uiso   1.00
C502   C     0.87230   0.71110   0.69153   0.01267  Uiso   1.00
C503   C     0.90790   0.77200   0.70110   0.01267  Uiso   1.00
C504   C     0.89030   0.68500   0.66243   0.01267  Uiso   1.00
C505   C     0.92670   0.75610   0.41261   0.01267  Uiso   1.00
C506   C     0.00970   0.76350   0.45314   0.01267  Uiso   1.00
C507   C     0.95020   0.79090   0.43962   0.01267  Uiso   1.00
C508   C     0.91010   0.84680   0.45141   0.01267  Uiso   1.00
C509   C     0.93300   0.87290   0.47670   0.01267  Uiso   1.00
C510   C     0.99400   0.84370   0.48946   0.01267  Uiso   1.00
C511   C     0.02620   0.87120   0.51472   0.01267  Uiso   1.00
C512   C     0.00290   0.93240   0.52906   0.01267  Uiso   1.00
C513   C     0.04260   0.95810   0.55090   0.01267  Uiso   1.00
C514   C     0.10590   0.92300   0.55831   0.01267  Uiso   1.00
C515   C     0.12590   0.85980   0.54449   0.01267  Uiso   1.00
C516   C     0.15420   0.95070   0.58106   0.01267  Uiso   1.00
C517   C     0.77370   0.07300   0.57120   0.01267  Uiso   1.00
C518   C     0.81910   0.15500   0.53468   0.01267  Uiso   1.00
C519   C     0.75890   0.12640   0.54808   0.01267  Uiso   1.00
C520   C     0.69110   0.15050   0.54051   0.01267  Uiso   1.00
C521   C     0.68350   0.19940   0.51885   0.01267  Uiso   1.00
C522   C     0.74580   0.22510   0.50613   0.01267  Uiso   1.00
C523   C     0.74770   0.27430   0.48208   0.01267  Uiso   1.00
C524   C     0.68920   0.30160   0.46873   0.01267  Uiso   1.00
C525   C     0.69860   0.34280   0.44472   0.01267  Uiso   1.00
C526   C     0.76840   0.35540   0.43548   0.01267  Uiso   1.00
C527   C     0.82620   0.32830   0.45076   0.01267  Uiso   1.00
C528   C     0.78450   0.39980   0.41005   0.01267  Uiso   1.00
C529   C     0.39220   0.82880   0.57652   0.01267  Uiso   1.00
C530   C     0.49140   0.79730   0.54174   0.01267  Uiso   1.00
C531   C     0.43390   0.84100   0.54985   0.01267  Uiso   1.00
C532   C     0.41310   0.89690   0.53253   0.01267  Uiso   1.00
C533   C     0.45130   0.90990   0.50857   0.01267  Uiso   1.00
C534   C     0.51010   0.86740   0.50233   0.01267  Uiso   1.00
C535   C     0.55720   0.87970   0.47878   0.01267  Uiso   1.00
C536   C     0.54500   0.93120   0.45879   0.01267  Uiso   1.00
C537   C     0.59450   0.94030   0.43797   0.01267  Uiso   1.00
C538   C     0.65710   0.89820   0.43686   0.01267  Uiso   1.00
C539   C     0.66590   0.84520   0.45720   0.01267  Uiso   1.00
C540   C     0.71400   0.91390   0.41499   0.01267  Uiso   1.00
C541   C     0.79640   0.01590   0.66150   0.01267  Uiso   1.00
C542   C     0.86850   0.96540   0.70118   0.01267  Uiso   1.00
C543   C     0.84710   0.02480   0.68555   0.01267  Uiso   1.00
C544   C     0.87180   0.09200   0.69315   0.01267  Uiso   1.00
C545   C     0.91320   0.09910   0.71707   0.01267  Uiso   1.00
C546   C     0.93150   0.03780   0.73200   0.01267  Uiso   1.00
C547   C     0.97500   0.03900   0.75770   0.01267  Uiso   1.00
C548   C     0.99170   0.10120   0.77217   0.01267  Uiso   1.00
C549   C     0.03040   0.09590   0.79648   0.01267  Uiso   1.00
C550   C     0.05370   0.02880   0.80519   0.01267  Uiso   1.00
C551   C     0.03460   0.96880   0.78952   0.01267  Uiso   1.00
C552   C     0.09580   0.01590   0.83141   0.01267  Uiso   1.00
C553   C     0.13570   0.94990   0.65566   0.01267  Uiso   1.00
C554   C     0.05800   0.91400   0.69607   0.01267  Uiso   1.00
C555   C     0.11240   0.89640   0.67711   0.01267  Uiso   1.00
C556   C     0.14890   0.83170   0.68033   0.01267  Uiso   1.00
C557   C     0.13440   0.78860   0.70299   0.01267  Uiso   1.00
C558   C     0.08330   0.81150   0.72216   0.01267  Uiso   1.00
C559   C     0.07210   0.77440   0.74909   0.01267  Uiso   1.00
C560   C     0.11460   0.71660   0.75748   0.01267  Uiso   1.00
C561   C     0.10610   0.68900   0.78391   0.01267  Uiso   1.00
C562   C     0.05500   0.72030   0.80127   0.01267  Uiso   1.00
C563   C     0.01170   0.77620   0.79093   0.01267  Uiso   1.00
C564   C     0.04310   0.69330   0.83040   0.01267  Uiso   1.00
C565   C     0.28770   0.07290   0.65961   0.01267  Uiso   1.00
C566   C     0.35620   0.09730   0.70372   0.01267  Uiso   1.00
C567   C     0.30670   0.11970   0.68362   0.01267  Uiso   1.00
C568   C     0.27460   0.18740   0.68669   0.01267  Uiso   1.00
C569   C     0.28860   0.22720   0.71064   0.01267  Uiso   1.00
C570   C     0.33510   0.19900   0.73036   0.01267  Uiso   1.00
C571   C     0.34840   0.23470   0.75736   0.01267  Uiso   1.00
C572   C     0.31160   0.29680   0.76542   0.01267  Uiso   1.00
C573   C     0.32450   0.32430   0.79187   0.01267  Uiso   1.00
C574   C     0.37230   0.28890   0.80847   0.01267  Uiso   1.00
C575   C     0.40790   0.22800   0.79890   0.01267  Uiso   1.00
C576   C     0.39030   0.31500   0.83757   0.01267  Uiso   1.00
N1     N     0.03220   0.28780   0.02213   0.01267  Uiso   1.00
N2     N     0.08590   0.33350   0.97631   0.01267  Uiso   1.00
N3     N     0.81220   0.70360   0.98539   0.01267  Uiso   1.00
N4     N     0.81700   0.78890   0.02644   0.01267  Uiso   1.00
N5     N     0.52990   0.31020   0.98156   0.01267  Uiso   1.00
N6     N     0.61770   0.33540   0.02270   0.01267  Uiso   1.00
N7     N     0.91030   0.47070   0.77663   0.01267  Uiso   1.00
N8     N     0.99580   0.47270   0.73321   0.01267  Uiso   1.00
N9     N     0.04300   0.37230   0.78179   0.01267  Uiso   1.00
N10    N     0.02000   0.30340   0.73451   0.01267  Uiso   1.00
N11    N     0.37000   0.63530   0.77343   0.01267  Uiso   1.00
N12    N     0.39760   0.70090   0.72652   0.01267  Uiso   1.00
N13    N     0.53220   0.71220   0.47787   0.01267  Uiso   1.00
N14    N     0.58590   0.66650   0.52369   0.01267  Uiso   1.00
N15    N     0.31220   0.29640   0.51461   0.01267  Uiso   1.00
N16    N     0.31700   0.21110   0.47356   0.01267  Uiso   1.00
N17    N     0.02990   0.68980   0.51844   0.01267  Uiso   1.00
N18    N     0.11770   0.66460   0.47730   0.01267  Uiso   1.00
N19    N     0.41030   0.52930   0.72337   0.01267  Uiso   1.00
N20    N     0.49580   0.52730   0.76679   0.01267  Uiso   1.00
N21    N     0.54300   0.62770   0.71821   0.01267  Uiso   1.00
N22    N     0.52000   0.69660   0.76549   0.01267  Uiso   1.00
N23    N     0.87000   0.36470   0.72657   0.01267  Uiso   1.00
N24    N     0.89760   0.29910   0.77348   0.01267  Uiso   1.00
N25    N     0.46780   0.78780   0.97787   0.01267  Uiso   1.00
N26    N     0.41410   0.83350   0.02369   0.01267  Uiso   1.00
N27    N     0.68780   0.20360   0.01461   0.01267  Uiso   1.00
N28    N     0.68300   0.28890   0.97356   0.01267  Uiso   1.00
N29    N     0.97010   0.81020   0.01844   0.01267  Uiso   1.00
N30    N     0.88230   0.83540   0.97730   0.01267  Uiso   1.00
N31    N     0.58970   0.97070   0.22337   0.01267  Uiso   1.00
N32    N     0.50420   0.97270   0.26679   0.01267  Uiso   1.00
N33    N     0.45700   0.87230   0.21821   0.01267  Uiso   1.00
N34    N     0.48000   0.80340   0.26549   0.01267  Uiso   1.00
N35    N     0.13000   0.13530   0.22657   0.01267  Uiso   1.00
N36    N     0.10240   0.20090   0.27348   0.01267  Uiso   1.00
N37    N     0.96780   0.21220   0.52213   0.01267  Uiso   1.00
N38    N     0.91410   0.16650   0.47631   0.01267  Uiso   1.00
N39    N     0.18780   0.79640   0.48539   0.01267  Uiso   1.00
N40    N     0.18300   0.71110   0.52644   0.01267  Uiso   1.00
N41    N     0.47010   0.18980   0.48156   0.01267  Uiso   1.00
N42    N     0.38230   0.16460   0.52270   0.01267  Uiso   1.00
N43    N     0.08970   0.02930   0.27663   0.01267  Uiso   1.00
N44    N     0.00420   0.02730   0.23321   0.01267  Uiso   1.00
N45    N     0.95700   0.12770   0.28179   0.01267  Uiso   1.00
N46    N     0.98000   0.19660   0.23451   0.01267  Uiso   1.00
N47    N     0.63000   0.86470   0.27343   0.01267  Uiso   1.00
N48    N     0.60240   0.79910   0.22652   0.01267  Uiso   1.00
N49    N     0.96780   0.71220   0.97787   0.01267  Uiso   1.00
N50    N     0.91410   0.66650   0.02369   0.01267  Uiso   1.00
N51    N     0.18780   0.29640   0.01461   0.01267  Uiso   1.00
N52    N     0.18300   0.21110   0.97356   0.01267  Uiso   1.00
N53    N     0.47010   0.68980   0.01844   0.01267  Uiso   1.00
N54    N     0.38230   0.66460   0.97730   0.01267  Uiso   1.00
N55    N     0.08970   0.52930   0.22337   0.01267  Uiso   1.00
N56    N     0.00420   0.52730   0.26679   0.01267  Uiso   1.00
N57    N     0.95700   0.62770   0.21821   0.01267  Uiso   1.00
N58    N     0.98000   0.69660   0.26549   0.01267  Uiso   1.00
N59    N     0.63000   0.36470   0.22657   0.01267  Uiso   1.00
N60    N     0.60240   0.29910   0.27348   0.01267  Uiso   1.00
N61    N     0.46780   0.28780   0.52213   0.01267  Uiso   1.00
N62    N     0.41410   0.33350   0.47631   0.01267  Uiso   1.00
N63    N     0.68780   0.70360   0.48539   0.01267  Uiso   1.00
N64    N     0.68300   0.78890   0.52644   0.01267  Uiso   1.00
N65    N     0.97010   0.31020   0.48156   0.01267  Uiso   1.00
N66    N     0.88230   0.33540   0.52270   0.01267  Uiso   1.00
N67    N     0.58970   0.47070   0.27663   0.01267  Uiso   1.00
N68    N     0.50420   0.47270   0.23321   0.01267  Uiso   1.00
N69    N     0.45700   0.37230   0.28179   0.01267  Uiso   1.00
N70    N     0.48000   0.30340   0.23451   0.01267  Uiso   1.00
N71    N     0.13000   0.63530   0.27343   0.01267  Uiso   1.00
N72    N     0.10240   0.70090   0.22652   0.01267  Uiso   1.00
N73    N     0.53220   0.21220   0.02213   0.01267  Uiso   1.00
N74    N     0.58590   0.16650   0.97631   0.01267  Uiso   1.00
N75    N     0.31220   0.79640   0.98539   0.01267  Uiso   1.00
N76    N     0.31700   0.71110   0.02644   0.01267  Uiso   1.00
N77    N     0.02990   0.18980   0.98156   0.01267  Uiso   1.00
N78    N     0.11770   0.16460   0.02270   0.01267  Uiso   1.00
N79    N     0.41030   0.02930   0.77663   0.01267  Uiso   1.00
N80    N     0.49580   0.02730   0.73321   0.01267  Uiso   1.00
N81    N     0.54300   0.12770   0.78179   0.01267  Uiso   1.00
N82    N     0.52000   0.19660   0.73451   0.01267  Uiso   1.00
N83    N     0.87000   0.86470   0.77343   0.01267  Uiso   1.00
N84    N     0.89760   0.79910   0.72652   0.01267  Uiso   1.00
N85    N     0.03220   0.78780   0.47787   0.01267  Uiso   1.00
N86    N     0.08590   0.83350   0.52369   0.01267  Uiso   1.00
N87    N     0.81220   0.20360   0.51461   0.01267  Uiso   1.00
N88    N     0.81700   0.28890   0.47356   0.01267  Uiso   1.00
N89    N     0.52990   0.81020   0.51844   0.01267  Uiso   1.00
N90    N     0.61770   0.83540   0.47730   0.01267  Uiso   1.00
N91    N     0.91030   0.97070   0.72337   0.01267  Uiso   1.00
N92    N     0.99580   0.97270   0.76679   0.01267  Uiso   1.00
N93    N     0.04300   0.87230   0.71821   0.01267  Uiso   1.00
N94    N     0.02000   0.80340   0.76549   0.01267  Uiso   1.00
N95    N     0.37000   0.13530   0.72657   0.01267  Uiso   1.00
N96    N     0.39760   0.20090   0.77348   0.01267  Uiso   1.00
O1     O     0.88630   0.29300   0.10306   0.01267  Uiso   1.00
O2     O     0.94740   0.19260   0.09148   0.01267  Uiso   1.00
O3     O     0.13410   0.50910   0.90805   0.01267  Uiso   1.00
O4     O     0.20940   0.41410   0.91310   0.01267  Uiso   1.00
O5     O     0.83740   0.55180   0.92555   0.01267  Uiso   1.00
O6     O     0.71640   0.55400   0.91656   0.01267  Uiso   1.00
O7     O     0.84840   0.92090   0.09384   0.01267  Uiso   1.00
O8     O     0.73350   0.91630   0.10599   0.01267  Uiso   1.00
O9     O     0.38610   0.26640   0.91422   0.01267  Uiso   1.00
O10    O     0.36510   0.38560   0.91343   0.01267  Uiso   1.00
O11    O     0.76660   0.37160   0.08840   0.01267  Uiso   1.00
O12    O     0.70180   0.47040   0.09841   0.01267  Uiso   1.00
O13    O     0.79530   0.56040   0.85756   0.01267  Uiso   1.00
O14    O     0.75300   0.46330   0.83812   0.01267  Uiso   1.00
O15    O     0.10380   0.56550   0.65141   0.01267  Uiso   1.00
O16    O     0.12310   0.45430   0.66508   0.01267  Uiso   1.00
O17    O     0.09820   0.50470   0.84887   0.01267  Uiso   1.00
O18    O     0.19500   0.43370   0.85631   0.01267  Uiso   1.00
O19    O     0.98430   0.20750   0.65877   0.01267  Uiso   1.00
O20    O     0.09460   0.15910   0.65937   0.01267  Uiso   1.00
O21    O     0.23360   0.59460   0.85408   0.01267  Uiso   1.00
O22    O     0.32290   0.51620   0.84439   0.01267  Uiso   1.00
O23    O     0.36040   0.87180   0.65470   0.01267  Uiso   1.00
O24    O     0.43170   0.77620   0.64847   0.01267  Uiso   1.00
O25    O     0.43740   0.47740   0.87706   0.01267  Uiso   1.00
O26    O     0.26250   0.30280   0.87981   0.01267  Uiso   1.00
O27    O     0.98590   0.40840   0.11117   0.01267  Uiso   1.00
O28    O     0.67680   0.64230   0.87198   0.01267  Uiso   1.00
O29    O     0.56790   0.54710   0.89337   0.01267  Uiso   1.00
O30    O     0.38630   0.70700   0.39694   0.01267  Uiso   1.00
O31    O     0.44740   0.80740   0.40852   0.01267  Uiso   1.00
O32    O     0.63410   0.49090   0.59195   0.01267  Uiso   1.00
O33    O     0.70940   0.58590   0.58690   0.01267  Uiso   1.00
O34    O     0.33740   0.44820   0.57445   0.01267  Uiso   1.00
O35    O     0.21640   0.44600   0.58344   0.01267  Uiso   1.00
O36    O     0.34840   0.07910   0.40616   0.01267  Uiso   1.00
O37    O     0.23350   0.08370   0.39401   0.01267  Uiso   1.00
O38    O     0.88610   0.73360   0.58578   0.01267  Uiso   1.00
O39    O     0.86510   0.61440   0.58657   0.01267  Uiso   1.00
O40    O     0.26660   0.62840   0.41160   0.01267  Uiso   1.00
O41    O     0.20180   0.52960   0.40159   0.01267  Uiso   1.00
O42    O     0.29530   0.43960   0.64244   0.01267  Uiso   1.00
O43    O     0.25300   0.53670   0.66188   0.01267  Uiso   1.00
O44    O     0.60380   0.43450   0.84859   0.01267  Uiso   1.00
O45    O     0.62310   0.54570   0.83492   0.01267  Uiso   1.00
O46    O     0.59820   0.49530   0.65113   0.01267  Uiso   1.00
O47    O     0.69500   0.56630   0.64369   0.01267  Uiso   1.00
O48    O     0.48430   0.79250   0.84123   0.01267  Uiso   1.00
O49    O     0.59460   0.84090   0.84063   0.01267  Uiso   1.00
O50    O     0.73360   0.40540   0.64592   0.01267  Uiso   1.00
O51    O     0.82290   0.48380   0.65561   0.01267  Uiso   1.00
O52    O     0.86040   0.12820   0.84530   0.01267  Uiso   1.00
O53    O     0.93170   0.22380   0.85153   0.01267  Uiso   1.00
O54    O     0.93740   0.52260   0.62294   0.01267  Uiso   1.00
O55    O     0.76250   0.69720   0.62019   0.01267  Uiso   1.00
O56    O     0.48590   0.59160   0.38883   0.01267  Uiso   1.00
O57    O     0.17680   0.35770   0.62802   0.01267  Uiso   1.00
O58    O     0.06790   0.45290   0.60663   0.01267  Uiso   1.00
O59    O     0.61370   0.79300   0.89694   0.01267  Uiso   1.00
O60    O     0.55260   0.69260   0.90852   0.01267  Uiso   1.00
O61    O     0.36590   0.00910   0.09195   0.01267  Uiso   1.00
O62    O     0.29060   0.91410   0.08690   0.01267  Uiso   1.00
O63    O     0.66260   0.05180   0.07445   0.01267  Uiso   1.00
O64    O     0.78360   0.05400   0.08344   0.01267  Uiso   1.00
O65    O     0.65160   0.42090   0.90616   0.01267  Uiso   1.00
O66    O     0.76650   0.41630   0.89401   0.01267  Uiso   1.00
O67    O     0.11390   0.76640   0.08578   0.01267  Uiso   1.00
O68    O     0.13490   0.88560   0.08657   0.01267  Uiso   1.00
O69    O     0.73340   0.87160   0.91160   0.01267  Uiso   1.00
O70    O     0.79820   0.97040   0.90159   0.01267  Uiso   1.00
O71    O     0.70470   0.06040   0.14244   0.01267  Uiso   1.00
O72    O     0.74700   0.96330   0.16188   0.01267  Uiso   1.00
O73    O     0.39620   0.06550   0.34859   0.01267  Uiso   1.00
O74    O     0.37690   0.95430   0.33492   0.01267  Uiso   1.00
O75    O     0.40180   0.00470   0.15113   0.01267  Uiso   1.00
O76    O     0.30500   0.93370   0.14369   0.01267  Uiso   1.00
O77    O     0.51570   0.70750   0.34123   0.01267  Uiso   1.00
O78    O     0.40540   0.65910   0.34063   0.01267  Uiso   1.00
O79    O     0.26640   0.09460   0.14592   0.01267  Uiso   1.00
O80    O     0.17710   0.01620   0.15561   0.01267  Uiso   1.00
O81    O     0.13960   0.37180   0.34530   0.01267  Uiso   1.00
O82    O     0.06830   0.27620   0.35153   0.01267  Uiso   1.00
O83    O     0.06260   0.97740   0.12294   0.01267  Uiso   1.00
O84    O     0.23750   0.80280   0.12019   0.01267  Uiso   1.00
O85    O     0.51410   0.90840   0.88883   0.01267  Uiso   1.00
O86    O     0.82320   0.14230   0.12802   0.01267  Uiso   1.00
O87    O     0.93210   0.04710   0.10663   0.01267  Uiso   1.00
O88    O     0.11370   0.20700   0.60306   0.01267  Uiso   1.00
O89    O     0.05260   0.30740   0.59148   0.01267  Uiso   1.00
O90    O     0.86590   0.99090   0.40805   0.01267  Uiso   1.00
O91    O     0.79060   0.08590   0.41310   0.01267  Uiso   1.00
O92    O     0.16260   0.94820   0.42555   0.01267  Uiso   1.00
O93    O     0.28360   0.94600   0.41656   0.01267  Uiso   1.00
O94    O     0.15160   0.57910   0.59384   0.01267  Uiso   1.00
O95    O     0.26650   0.58370   0.60599   0.01267  Uiso   1.00
O96    O     0.61390   0.23360   0.41422   0.01267  Uiso   1.00
O97    O     0.63490   0.11440   0.41343   0.01267  Uiso   1.00
O98    O     0.23340   0.12840   0.58840   0.01267  Uiso   1.00
O99    O     0.29820   0.02960   0.59841   0.01267  Uiso   1.00
O100   O     0.20470   0.93960   0.35756   0.01267  Uiso   1.00
O101   O     0.24700   0.03670   0.33812   0.01267  Uiso   1.00
O102   O     0.89620   0.93450   0.15141   0.01267  Uiso   1.00
O103   O     0.87690   0.04570   0.16508   0.01267  Uiso   1.00
O104   O     0.90180   0.99530   0.34887   0.01267  Uiso   1.00
O105   O     0.80500   0.06630   0.35631   0.01267  Uiso   1.00
O106   O     0.01570   0.29250   0.15877   0.01267  Uiso   1.00
O107   O     0.90540   0.34090   0.15937   0.01267  Uiso   1.00
O108   O     0.76640   0.90540   0.35408   0.01267  Uiso   1.00
O109   O     0.67710   0.98380   0.34439   0.01267  Uiso   1.00
O110   O     0.63960   0.62820   0.15470   0.01267  Uiso   1.00
O111   O     0.56830   0.72380   0.14847   0.01267  Uiso   1.00
O112   O     0.56260   0.02260   0.37706   0.01267  Uiso   1.00
O113   O     0.73750   0.19720   0.37981   0.01267  Uiso   1.00
O114   O     0.01410   0.09160   0.61117   0.01267  Uiso   1.00
O115   O     0.32320   0.85770   0.37198   0.01267  Uiso   1.00
O116   O     0.43210   0.95290   0.39337   0.01267  Uiso   1.00
O117   O     0.11370   0.70700   0.89694   0.01267  Uiso   1.00
O118   O     0.05260   0.80740   0.90852   0.01267  Uiso   1.00
O119   O     0.86590   0.49090   0.09195   0.01267  Uiso   1.00
O120   O     0.79060   0.58590   0.08690   0.01267  Uiso   1.00
O121   O     0.16260   0.44820   0.07445   0.01267  Uiso   1.00
O122   O     0.28360   0.44600   0.08344   0.01267  Uiso   1.00
O123   O     0.15160   0.07910   0.90616   0.01267  Uiso   1.00
O124   O     0.26650   0.08370   0.89401   0.01267  Uiso   1.00
O125   O     0.61390   0.73360   0.08578   0.01267  Uiso   1.00
O126   O     0.63490   0.61440   0.08657   0.01267  Uiso   1.00
O127   O     0.23340   0.62840   0.91160   0.01267  Uiso   1.00
O128   O     0.29820   0.52960   0.90159   0.01267  Uiso   1.00
O129   O     0.20470   0.43960   0.14244   0.01267  Uiso   1.00
O130   O     0.24700   0.53670   0.16188   0.01267  Uiso   1.00
O131   O     0.89620   0.43450   0.34859   0.01267  Uiso   1.00
O132   O     0.87690   0.54570   0.33492   0.01267  Uiso   1.00
O133   O     0.90180   0.49530   0.15113   0.01267  Uiso   1.00
O134   O     0.80500   0.56630   0.14369   0.01267  Uiso   1.00
O135   O     0.01570   0.79250   0.34123   0.01267  Uiso   1.00
O136   O     0.90540   0.84090   0.34063   0.01267  Uiso   1.00
O137   O     0.76640   0.40540   0.14592   0.01267  Uiso   1.00
O138   O     0.67710   0.48380   0.15561   0.01267  Uiso   1.00
O139   O     0.63960   0.12820   0.34530   0.01267  Uiso   1.00
O140   O     0.56830   0.22380   0.35153   0.01267  Uiso   1.00
O141   O     0.56260   0.52260   0.12294   0.01267  Uiso   1.00
O142   O     0.73750   0.69720   0.12019   0.01267  Uiso   1.00
O143   O     0.01410   0.59160   0.88883   0.01267  Uiso   1.00
O144   O     0.32320   0.35770   0.12802   0.01267  Uiso   1.00
O145   O     0.43210   0.45290   0.10663   0.01267  Uiso   1.00
O146   O     0.61370   0.29300   0.60306   0.01267  Uiso   1.00
O147   O     0.55260   0.19260   0.59148   0.01267  Uiso   1.00
O148   O     0.36590   0.50910   0.40805   0.01267  Uiso   1.00
O149   O     0.29060   0.41410   0.41310   0.01267  Uiso   1.00
O150   O     0.66260   0.55180   0.42555   0.01267  Uiso   1.00
O151   O     0.78360   0.55400   0.41656   0.01267  Uiso   1.00
O152   O     0.65160   0.92090   0.59384   0.01267  Uiso   1.00
O153   O     0.76650   0.91630   0.60599   0.01267  Uiso   1.00
O154   O     0.11390   0.26640   0.41422   0.01267  Uiso   1.00
O155   O     0.13490   0.38560   0.41343   0.01267  Uiso   1.00
O156   O     0.73340   0.37160   0.58840   0.01267  Uiso   1.00
O157   O     0.79820   0.47040   0.59841   0.01267  Uiso   1.00
O158   O     0.70470   0.56040   0.35756   0.01267  Uiso   1.00
O159   O     0.74700   0.46330   0.33812   0.01267  Uiso   1.00
O160   O     0.39620   0.56550   0.15141   0.01267  Uiso   1.00
O161   O     0.37690   0.45430   0.16508   0.01267  Uiso   1.00
O162   O     0.40180   0.50470   0.34887   0.01267  Uiso   1.00
O163   O     0.30500   0.43370   0.35631   0.01267  Uiso   1.00
O164   O     0.51570   0.20750   0.15877   0.01267  Uiso   1.00
O165   O     0.40540   0.15910   0.15937   0.01267  Uiso   1.00
O166   O     0.26640   0.59460   0.35408   0.01267  Uiso   1.00
O167   O     0.17710   0.51620   0.34439   0.01267  Uiso   1.00
O168   O     0.13960   0.87180   0.15470   0.01267  Uiso   1.00
O169   O     0.06830   0.77620   0.14847   0.01267  Uiso   1.00
O170   O     0.06260   0.47740   0.37706   0.01267  Uiso   1.00
O171   O     0.23750   0.30280   0.37981   0.01267  Uiso   1.00
O172   O     0.51410   0.40840   0.61117   0.01267  Uiso   1.00
O173   O     0.82320   0.64230   0.37198   0.01267  Uiso   1.00
O174   O     0.93210   0.54710   0.39337   0.01267  Uiso   1.00
O175   O     0.38630   0.20700   0.10306   0.01267  Uiso   1.00
O176   O     0.44740   0.30740   0.09148   0.01267  Uiso   1.00
O177   O     0.63410   0.99090   0.90805   0.01267  Uiso   1.00
O178   O     0.70940   0.08590   0.91310   0.01267  Uiso   1.00
O179   O     0.33740   0.94820   0.92555   0.01267  Uiso   1.00
O180   O     0.21640   0.94600   0.91656   0.01267  Uiso   1.00
O181   O     0.34840   0.57910   0.09384   0.01267  Uiso   1.00
O182   O     0.23350   0.58370   0.10599   0.01267  Uiso   1.00
O183   O     0.88610   0.23360   0.91422   0.01267  Uiso   1.00
O184   O     0.86510   0.11440   0.91343   0.01267  Uiso   1.00
O185   O     0.26660   0.12840   0.08840   0.01267  Uiso   1.00
O186   O     0.20180   0.02960   0.09841   0.01267  Uiso   1.00
O187   O     0.29530   0.93960   0.85756   0.01267  Uiso   1.00
O188   O     0.25300   0.03670   0.83812   0.01267  Uiso   1.00
O189   O     0.60380   0.93450   0.65141   0.01267  Uiso   1.00
O190   O     0.62310   0.04570   0.66508   0.01267  Uiso   1.00
O191   O     0.59820   0.99530   0.84887   0.01267  Uiso   1.00
O192   O     0.69500   0.06630   0.85631   0.01267  Uiso   1.00
O193   O     0.48430   0.29250   0.65877   0.01267  Uiso   1.00
O194   O     0.59460   0.34090   0.65937   0.01267  Uiso   1.00
O195   O     0.73360   0.90540   0.85408   0.01267  Uiso   1.00
O196   O     0.82290   0.98380   0.84439   0.01267  Uiso   1.00
O197   O     0.86040   0.62820   0.65470   0.01267  Uiso   1.00
O198   O     0.93170   0.72380   0.64847   0.01267  Uiso   1.00
O199   O     0.93740   0.02260   0.87706   0.01267  Uiso   1.00
O200   O     0.76250   0.19720   0.87981   0.01267  Uiso   1.00
O201   O     0.48590   0.09160   0.11117   0.01267  Uiso   1.00
O202   O     0.17680   0.85770   0.87198   0.01267  Uiso   1.00
O203   O     0.06790   0.95290   0.89337   0.01267  Uiso   1.00
O204   O     0.88630   0.79300   0.39694   0.01267  Uiso   1.00
O205   O     0.94740   0.69260   0.40852   0.01267  Uiso   1.00
O206   O     0.13410   0.00910   0.59195   0.01267  Uiso   1.00
O207   O     0.20940   0.91410   0.58690   0.01267  Uiso   1.00
O208   O     0.83740   0.05180   0.57445   0.01267  Uiso   1.00
O209   O     0.71640   0.05400   0.58344   0.01267  Uiso   1.00
O210   O     0.84840   0.42090   0.40616   0.01267  Uiso   1.00
O211   O     0.73350   0.41630   0.39401   0.01267  Uiso   1.00
O212   O     0.38610   0.76640   0.58578   0.01267  Uiso   1.00
O213   O     0.36510   0.88560   0.58657   0.01267  Uiso   1.00
O214   O     0.76660   0.87160   0.41160   0.01267  Uiso   1.00
O215   O     0.70180   0.97040   0.40159   0.01267  Uiso   1.00
O216   O     0.79530   0.06040   0.64244   0.01267  Uiso   1.00
O217   O     0.75300   0.96330   0.66188   0.01267  Uiso   1.00
O218   O     0.10380   0.06550   0.84859   0.01267  Uiso   1.00
O219   O     0.12310   0.95430   0.83492   0.01267  Uiso   1.00
O220   O     0.09820   0.00470   0.65113   0.01267  Uiso   1.00
O221   O     0.19500   0.93370   0.64369   0.01267  Uiso   1.00
O222   O     0.98430   0.70750   0.84123   0.01267  Uiso   1.00
O223   O     0.09460   0.65910   0.84063   0.01267  Uiso   1.00
O224   O     0.23360   0.09460   0.64592   0.01267  Uiso   1.00
O225   O     0.32290   0.01620   0.65561   0.01267  Uiso   1.00
O226   O     0.36040   0.37180   0.84530   0.01267  Uiso   1.00
O227   O     0.43170   0.27620   0.85153   0.01267  Uiso   1.00
O228   O     0.43740   0.97740   0.62294   0.01267  Uiso   1.00
O229   O     0.26250   0.80280   0.62019   0.01267  Uiso   1.00
O230   O     0.98590   0.90840   0.38883   0.01267  Uiso   1.00
O231   O     0.67680   0.14230   0.62802   0.01267  Uiso   1.00
O232   O     0.56790   0.04710   0.60663   0.01267  Uiso   1.00
Cl1    Cl    0.71003   0.50154   0.73687   0.01267  Uiso   1.00
O233   O     0.64261   0.46774   0.74259   0.01267  Uiso   1.00
O234   O     0.65469   0.52775   0.74910   0.01267  Uiso   1.00
O235   O     0.76213   0.48579   0.75606   0.01267  Uiso   1.00
O236   O     0.69550   0.48384   0.70759   0.01267  Uiso   1.00
Cl2    Cl    0.72578   0.99629   0.99188   0.01267  Uiso   1.00
O237   O     0.77920   0.95730   0.00700   0.01267  Uiso   1.00
O238   O     0.71030   0.95620   0.96714   0.01267  Uiso   1.00
O239   O     0.75320   0.06620   0.98479   0.01267  Uiso   1.00
O240   O     0.66030   0.00400   0.00737   0.01267  Uiso   1.00
Cl3    Cl    0.21003   0.49846   0.76313   0.01267  Uiso   1.00
O241   O     0.14261   0.53226   0.75741   0.01267  Uiso   1.00
O242   O     0.15469   0.47225   0.75090   0.01267  Uiso   1.00
O243   O     0.26213   0.51421   0.74394   0.01267  Uiso   1.00
O244   O     0.19550   0.51616   0.79241   0.01267  Uiso   1.00
Cl4    Cl    0.22578   0.00371   0.50812   0.01267  Uiso   1.00
O245   O     0.27920   0.04270   0.49300   0.01267  Uiso   1.00
O246   O     0.21030   0.04380   0.53286   0.01267  Uiso   1.00
O247   O     0.25320   0.93380   0.51521   0.01267  Uiso   1.00
O248   O     0.16030   0.99600   0.49263   0.01267  Uiso   1.00
Cl5    Cl    0.78997   0.00154   0.26313   0.01267  Uiso   1.00
O249   O     0.85739   0.96774   0.25741   0.01267  Uiso   1.00
O250   O     0.84531   0.02775   0.25090   0.01267  Uiso   1.00
O251   O     0.73787   0.98579   0.24394   0.01267  Uiso   1.00
O252   O     0.80450   0.98384   0.29241   0.01267  Uiso   1.00
Cl6    Cl    0.77422   0.49629   0.00812   0.01267  Uiso   1.00
O253   O     0.72080   0.45730   0.99300   0.01267  Uiso   1.00
O254   O     0.78970   0.45620   0.03286   0.01267  Uiso   1.00
O255   O     0.74680   0.56620   0.01521   0.01267  Uiso   1.00
O256   O     0.83970   0.50400   0.99263   0.01267  Uiso   1.00
Cl7    Cl    0.28997   0.99846   0.23687   0.01267  Uiso   1.00
O257   O     0.35739   0.03226   0.24259   0.01267  Uiso   1.00
O258   O     0.34531   0.97225   0.24910   0.01267  Uiso   1.00
O259   O     0.23787   0.01421   0.25606   0.01267  Uiso   1.00
O260   O     0.30450   0.01616   0.20759   0.01267  Uiso   1.00
Cl8    Cl    0.27422   0.50371   0.49188   0.01267  Uiso   1.00
O261   O     0.22080   0.54270   0.50700   0.01267  Uiso   1.00
O262   O     0.28970   0.54380   0.46714   0.01267  Uiso   1.00
O263   O     0.24680   0.43380   0.48479   0.01267  Uiso   1.00
O264   O     0.33970   0.49600   0.50737   0.01267  Uiso   1.00
Cl9    Cl    0.28997   0.49846   0.26313   0.01267  Uiso   1.00
O265   O     0.35739   0.53226   0.25741   0.01267  Uiso   1.00
O266   O     0.34531   0.47225   0.25090   0.01267  Uiso   1.00
O267   O     0.23787   0.51421   0.24394   0.01267  Uiso   1.00
O268   O     0.30450   0.51616   0.29241   0.01267  Uiso   1.00
Cl10   Cl    0.27422   0.00371   0.00812   0.01267  Uiso   1.00
O269   O     0.22080   0.04270   0.99300   0.01267  Uiso   1.00
O270   O     0.28970   0.04380   0.03286   0.01267  Uiso   1.00
O271   O     0.24680   0.93380   0.01521   0.01267  Uiso   1.00
O272   O     0.33970   0.99600   0.99263   0.01267  Uiso   1.00
Cl11   Cl    0.78997   0.50154   0.23687   0.01267  Uiso   1.00
O273   O     0.85739   0.46774   0.24259   0.01267  Uiso   1.00
O274   O     0.84531   0.52775   0.24910   0.01267  Uiso   1.00
O275   O     0.73787   0.48579   0.25606   0.01267  Uiso   1.00
O276   O     0.80450   0.48384   0.20759   0.01267  Uiso   1.00
Cl12   Cl    0.77422   0.99629   0.49188   0.01267  Uiso   1.00
O277   O     0.72080   0.95730   0.50700   0.01267  Uiso   1.00
O278   O     0.78970   0.95620   0.46714   0.01267  Uiso   1.00
O279   O     0.74680   0.06620   0.48479   0.01267  Uiso   1.00
O280   O     0.83970   0.00400   0.50737   0.01267  Uiso   1.00
Cl13   Cl    0.21003   0.99846   0.73687   0.01267  Uiso   1.00
O281   O     0.14261   0.03226   0.74259   0.01267  Uiso   1.00
O282   O     0.15469   0.97225   0.74910   0.01267  Uiso   1.00
O283   O     0.26213   0.01421   0.75606   0.01267  Uiso   1.00
O284   O     0.19550   0.01616   0.70759   0.01267  Uiso   1.00
Cl14   Cl    0.22578   0.50371   0.99188   0.01267  Uiso   1.00
O285   O     0.27920   0.54270   0.00700   0.01267  Uiso   1.00
O286   O     0.21030   0.54380   0.96714   0.01267  Uiso   1.00
O287   O     0.25320   0.43380   0.98479   0.01267  Uiso   1.00
O288   O     0.16030   0.49600   0.00737   0.01267  Uiso   1.00
Cl15   Cl    0.71003   0.00154   0.76313   0.01267  Uiso   1.00
O289   O     0.64261   0.96774   0.75741   0.01267  Uiso   1.00
O290   O     0.65469   0.02775   0.75090   0.01267  Uiso   1.00
O291   O     0.76213   0.98579   0.74394   0.01267  Uiso   1.00
O292   O     0.69550   0.98384   0.79241   0.01267  Uiso   1.00
Cl16   Cl    0.72578   0.49629   0.50812   0.01267  Uiso   1.00
O293   O     0.77920   0.45730   0.49300   0.01267  Uiso   1.00
O294   O     0.71030   0.45620   0.53286   0.01267  Uiso   1.00
O295   O     0.75320   0.56620   0.51521   0.01267  Uiso   1.00
O296   O     0.66030   0.50400   0.49263   0.01267  Uiso   1.00
