data_PEJPEB_charged
_audit_creation_date              2014-07-02
_audit_creation_method            'Materials Studio'
_symmetry_space_group_name_H-M    'P1'
_symmetry_Int_Tables_number       1
_symmetry_cell_setting            triclinic
loop_
_symmetry_equiv_pos_as_xyz
  x,y,z
_cell_length_a                    17.2006
_cell_length_b                    25.9376
_cell_length_c                    25.9376
_cell_angle_alpha                 64.7414
_cell_angle_beta                  77.2292
_cell_angle_gamma                 102.7710
loop_
_atom_site_label
_atom_site_type_symbol
_atom_site_fract_x
_atom_site_fract_y
_atom_site_fract_z
_atom_site_U_iso_or_equiv
_atom_site_adp_type
_atom_site_occupancy
Zn1    Zn    0.14244   0.14322   0.18697   0.01267  Uiso   1.00
Zn2    Zn    0.35904   0.19937   0.13614   0.01267  Uiso   1.00
Zn3    Zn    0.52256   0.51370   0.73893   0.01267  Uiso   1.00
Zn4    Zn    0.32941   0.18697   0.66981   0.01267  Uiso   1.00
Zn5    Zn    0.49518   0.13614   0.66449   0.01267  Uiso   1.00
Zn6    Zn    0.26149   0.73893   0.74737   0.01267  Uiso   1.00
Zn7    Zn    0.99922   0.66981   0.14322   0.01267  Uiso   1.00
Zn8    Zn    0.15967   0.66449   0.19937   0.01267  Uiso   1.00
Zn9    Zn    0.00886   0.74737   0.51370   0.01267  Uiso   1.00
Zn10   Zn    0.85756   0.85678   0.81303   0.01267  Uiso   1.00
Zn11   Zn    0.64096   0.80063   0.86386   0.01267  Uiso   1.00
Zn12   Zn    0.47744   0.48630   0.26107   0.01267  Uiso   1.00
Zn13   Zn    0.67059   0.81303   0.33019   0.01267  Uiso   1.00
Zn14   Zn    0.50482   0.86386   0.33551   0.01267  Uiso   1.00
Zn15   Zn    0.73851   0.26107   0.25263   0.01267  Uiso   1.00
Zn16   Zn    0.00078   0.33019   0.85678   0.01267  Uiso   1.00
Zn17   Zn    0.84033   0.33551   0.80063   0.01267  Uiso   1.00
Zn18   Zn    0.99114   0.25263   0.48630   0.01267  Uiso   1.00
H1     H     0.38420   0.32250   0.96560   0.01267  Uiso   1.00
H2     H     0.26770   0.38830   0.84720   0.01267  Uiso   1.00
H3     H     0.13570   0.23610   0.01000   0.01267  Uiso   1.00
H4     H     0.12530   0.20920   0.30920   0.01267  Uiso   1.00
H5     H     0.23100   0.34640   0.33480   0.01267  Uiso   1.00
H6     H     0.36110   0.32640   0.19960   0.01267  Uiso   1.00
H7     H     0.12540   0.97780   0.32500   0.01267  Uiso   1.00
H8     H     0.25110   0.86880   0.39030   0.01267  Uiso   1.00
H9     H     0.37330   0.02590   0.23180   0.01267  Uiso   1.00
H10    H     0.34980   0.96560   0.71190   0.01267  Uiso   1.00
H11    H     0.11490   0.84720   0.76450   0.01267  Uiso   1.00
H12    H     0.14570   0.01000   0.75390   0.01267  Uiso   1.00
H13    H     0.43450   0.30920   0.48160   0.01267  Uiso   1.00
H14    H     0.56580   0.33480   0.31880   0.01267  Uiso   1.00
H15    H     0.56070   0.19960   0.47400   0.01267  Uiso   1.00
H16    H     0.45040   0.32500   0.69720   0.01267  Uiso   1.00
H17    H     0.64140   0.39030   0.74090   0.01267  Uiso   1.00
H18    H     0.60510   0.23180   0.74230   0.01267  Uiso   1.00
H19    H     0.06170   0.71190   0.32250   0.01267  Uiso   1.00
H20    H     0.87940   0.76450   0.38830   0.01267  Uiso   1.00
H21    H     0.89960   0.75390   0.23610   0.01267  Uiso   1.00
H22    H     0.91610   0.48160   0.20920   0.01267  Uiso   1.00
H23    H     0.88460   0.31880   0.34640   0.01267  Uiso   1.00
H24    H     0.03470   0.47400   0.32640   0.01267  Uiso   1.00
H25    H     0.14760   0.69720   0.97780   0.01267  Uiso   1.00
H26    H     0.38230   0.74090   0.86880   0.01267  Uiso   1.00
H27    H     0.34740   0.74230   0.02590   0.01267  Uiso   1.00
H28    H     0.61580   0.67750   0.03440   0.01267  Uiso   1.00
H29    H     0.73230   0.61170   0.15280   0.01267  Uiso   1.00
H30    H     0.86430   0.76390   0.99000   0.01267  Uiso   1.00
H31    H     0.87470   0.79080   0.69080   0.01267  Uiso   1.00
H32    H     0.76900   0.65360   0.66520   0.01267  Uiso   1.00
H33    H     0.63890   0.67360   0.80040   0.01267  Uiso   1.00
H34    H     0.87460   0.02220   0.67500   0.01267  Uiso   1.00
H35    H     0.74890   0.13120   0.60970   0.01267  Uiso   1.00
H36    H     0.62670   0.97410   0.76820   0.01267  Uiso   1.00
H37    H     0.65020   0.03440   0.28810   0.01267  Uiso   1.00
H38    H     0.88510   0.15280   0.23550   0.01267  Uiso   1.00
H39    H     0.85430   0.99000   0.24610   0.01267  Uiso   1.00
H40    H     0.56550   0.69080   0.51840   0.01267  Uiso   1.00
H41    H     0.43420   0.66520   0.68120   0.01267  Uiso   1.00
H42    H     0.43930   0.80040   0.52600   0.01267  Uiso   1.00
H43    H     0.54960   0.67500   0.30280   0.01267  Uiso   1.00
H44    H     0.35860   0.60970   0.25910   0.01267  Uiso   1.00
H45    H     0.39490   0.76820   0.25770   0.01267  Uiso   1.00
H46    H     0.93830   0.28810   0.67750   0.01267  Uiso   1.00
H47    H     0.12060   0.23550   0.61170   0.01267  Uiso   1.00
H48    H     0.10040   0.24610   0.76390   0.01267  Uiso   1.00
H49    H     0.08390   0.51840   0.79080   0.01267  Uiso   1.00
H50    H     0.11540   0.68120   0.65360   0.01267  Uiso   1.00
H51    H     0.96530   0.52600   0.67360   0.01267  Uiso   1.00
H52    H     0.85240   0.30280   0.02220   0.01267  Uiso   1.00
H53    H     0.61770   0.25910   0.13120   0.01267  Uiso   1.00
H54    H     0.65260   0.25770   0.97410   0.01267  Uiso   1.00
C1     C     0.25336   0.23076   0.05938   0.01267  Uiso   1.00
C2     C     0.25980   0.27457   0.99687   0.01267  Uiso   1.00
C3     C     0.33523   0.32022   0.95573   0.01267  Uiso   1.00
C4     C     0.33918   0.36338   0.89914   0.01267  Uiso   1.00
C5     C     0.26583   0.35861   0.88432   0.01267  Uiso   1.00
C6     C     0.18868   0.30925   0.92511   0.01267  Uiso   1.00
C7     C     0.18635   0.26810   0.98185   0.01267  Uiso   1.00
C8     C     0.42303   0.41376   0.85307   0.01267  Uiso   1.00
C9     C     0.11303   0.30516   0.90737   0.01267  Uiso   1.00
C10    C     0.25089   0.22748   0.21651   0.01267  Uiso   1.00
C11    C     0.24461   0.26249   0.24996   0.01267  Uiso   1.00
C12    C     0.17175   0.24275   0.29880   0.01267  Uiso   1.00
C13    C     0.16668   0.27190   0.33236   0.01267  Uiso   1.00
C14    C     0.23453   0.32541   0.31342   0.01267  Uiso   1.00
C15    C     0.30694   0.34707   0.26275   0.01267  Uiso   1.00
C16    C     0.31178   0.31363   0.23219   0.01267  Uiso   1.00
C17    C     0.08895   0.24759   0.38764   0.01267  Uiso   1.00
C18    C     0.37903   0.40547   0.24078   0.01267  Uiso   1.00
C19    C     0.24882   0.07164   0.22528   0.01267  Uiso   1.00
C20    C     0.24899   0.01217   0.27210   0.01267  Uiso   1.00
C21    C     0.17616   0.97031   0.32183   0.01267  Uiso   1.00
C22    C     0.17725   0.91868   0.36593   0.01267  Uiso   1.00
C23    C     0.32440   0.94570   0.31120   0.01267  Uiso   1.00
C24    C     0.25100   0.90510   0.36060   0.01267  Uiso   1.00
C25    C     0.32410   0.99890   0.26600   0.01267  Uiso   1.00
C26    C     0.40320   0.92820   0.30300   0.01267  Uiso   1.00
C27    C     0.09462   0.87121   0.42085   0.01267  Uiso   1.00
C28    C     0.31274   0.05938   0.70986   0.01267  Uiso   1.00
C29    C     0.25667   0.99687   0.72856   0.01267  Uiso   1.00
C30    C     0.29096   0.95573   0.72405   0.01267  Uiso   1.00
C31    C     0.23832   0.89914   0.73748   0.01267  Uiso   1.00
C32    C     0.15015   0.88432   0.75707   0.01267  Uiso   1.00
C33    C     0.11379   0.92511   0.76564   0.01267  Uiso   1.00
C34    C     0.16820   0.98185   0.75005   0.01267  Uiso   1.00
C35    C     0.27610   0.85307   0.73317   0.01267  Uiso   1.00
C36    C     0.02040   0.90737   0.78747   0.01267  Uiso   1.00
C37    C     0.46740   0.21651   0.55601   0.01267  Uiso   1.00
C38    C     0.49457   0.24996   0.48755   0.01267  Uiso   1.00
C39    C     0.47055   0.29880   0.45845   0.01267  Uiso   1.00
C40    C     0.49904   0.33236   0.39574   0.01267  Uiso   1.00
C41    C     0.54795   0.31342   0.36117   0.01267  Uiso   1.00
C42    C     0.56969   0.26275   0.39018   0.01267  Uiso   1.00
C43    C     0.54397   0.23219   0.45418   0.01267  Uiso   1.00
C44    C     0.47659   0.38764   0.36477   0.01267  Uiso   1.00
C45    C     0.61981   0.24078   0.35375   0.01267  Uiso   1.00
C46    C     0.47410   0.22528   0.70308   0.01267  Uiso   1.00
C47    C     0.52109   0.27210   0.71573   0.01267  Uiso   1.00
C48    C     0.49799   0.32183   0.70786   0.01267  Uiso   1.00
C49    C     0.54318   0.36593   0.71539   0.01267  Uiso   1.00
C50    C     0.63560   0.31120   0.74310   0.01267  Uiso   1.00
C51    C     0.61160   0.36060   0.73430   0.01267  Uiso   1.00
C52    C     0.59010   0.26600   0.73510   0.01267  Uiso   1.00
C53    C     0.70620   0.30300   0.76880   0.01267  Uiso   1.00
C54    C     0.51547   0.42085   0.70794   0.01267  Uiso   1.00
C55    C     0.02260   0.70986   0.23076   0.01267  Uiso   1.00
C56    C     0.98523   0.72856   0.27457   0.01267  Uiso   1.00
C57    C     0.01501   0.72405   0.32022   0.01267  Uiso   1.00
C58    C     0.97580   0.73748   0.36338   0.01267  Uiso   1.00
C59    C     0.90722   0.75707   0.35861   0.01267  Uiso   1.00
C60    C     0.87943   0.76564   0.30925   0.01267  Uiso   1.00
C61    C     0.91825   0.75005   0.26810   0.01267  Uiso   1.00
C62    C     0.00927   0.73317   0.41376   0.01267  Uiso   1.00
C63    C     0.80787   0.78747   0.30516   0.01267  Uiso   1.00
C64    C     0.02341   0.55601   0.22748   0.01267  Uiso   1.00
C65    C     0.98212   0.48755   0.26249   0.01267  Uiso   1.00
C66    C     0.92900   0.45845   0.24275   0.01267  Uiso   1.00
C67    C     0.89478   0.39574   0.27190   0.01267  Uiso   1.00
C68    C     0.90912   0.36117   0.32541   0.01267  Uiso   1.00
C69    C     0.95987   0.39018   0.34707   0.01267  Uiso   1.00
C70    C     0.99815   0.45418   0.31363   0.01267  Uiso   1.00
C71    C     0.84136   0.36477   0.24759   0.01267  Uiso   1.00
C72    C     0.97356   0.35375   0.40547   0.01267  Uiso   1.00
C73    C     0.17718   0.70308   0.07164   0.01267  Uiso   1.00
C74    C     0.23682   0.71573   0.01217   0.01267  Uiso   1.00
C75    C     0.20585   0.70786   0.97031   0.01267  Uiso   1.00
C76    C     0.25857   0.71539   0.91868   0.01267  Uiso   1.00
C77    C     0.37870   0.74310   0.94570   0.01267  Uiso   1.00
C78    C     0.34590   0.73430   0.90510   0.01267  Uiso   1.00
C79    C     0.32520   0.73510   0.99890   0.01267  Uiso   1.00
C80    C     0.47500   0.76880   0.92820   0.01267  Uiso   1.00
C81    C     0.22341   0.70794   0.87121   0.01267  Uiso   1.00
C82    C     0.74664   0.76924   0.94062   0.01267  Uiso   1.00
C83    C     0.74020   0.72543   0.00313   0.01267  Uiso   1.00
C84    C     0.66477   0.67978   0.04427   0.01267  Uiso   1.00
C85    C     0.66082   0.63662   0.10086   0.01267  Uiso   1.00
C86    C     0.73417   0.64139   0.11568   0.01267  Uiso   1.00
C87    C     0.81132   0.69075   0.07489   0.01267  Uiso   1.00
C88    C     0.81365   0.73190   0.01815   0.01267  Uiso   1.00
C89    C     0.57697   0.58624   0.14693   0.01267  Uiso   1.00
C90    C     0.88697   0.69484   0.09263   0.01267  Uiso   1.00
C91    C     0.74911   0.77252   0.78349   0.01267  Uiso   1.00
C92    C     0.75539   0.73751   0.75004   0.01267  Uiso   1.00
C93    C     0.82825   0.75725   0.70120   0.01267  Uiso   1.00
C94    C     0.83332   0.72810   0.66764   0.01267  Uiso   1.00
C95    C     0.76547   0.67459   0.68658   0.01267  Uiso   1.00
C96    C     0.69306   0.65293   0.73725   0.01267  Uiso   1.00
C97    C     0.68822   0.68637   0.76781   0.01267  Uiso   1.00
C98    C     0.91105   0.75241   0.61236   0.01267  Uiso   1.00
C99    C     0.62097   0.59453   0.75922   0.01267  Uiso   1.00
C100   C     0.75118   0.92836   0.77472   0.01267  Uiso   1.00
C101   C     0.75101   0.98783   0.72790   0.01267  Uiso   1.00
C102   C     0.82384   0.02969   0.67817   0.01267  Uiso   1.00
C103   C     0.82275   0.08132   0.63407   0.01267  Uiso   1.00
C104   C     0.67560   0.05430   0.68880   0.01267  Uiso   1.00
C105   C     0.74900   0.09490   0.63940   0.01267  Uiso   1.00
C106   C     0.67590   0.00110   0.73400   0.01267  Uiso   1.00
C107   C     0.59680   0.07180   0.69700   0.01267  Uiso   1.00
C108   C     0.90538   0.12879   0.57915   0.01267  Uiso   1.00
C109   C     0.68726   0.94062   0.29014   0.01267  Uiso   1.00
C110   C     0.74333   0.00313   0.27144   0.01267  Uiso   1.00
C111   C     0.70904   0.04427   0.27595   0.01267  Uiso   1.00
C112   C     0.76168   0.10086   0.26252   0.01267  Uiso   1.00
C113   C     0.84985   0.11568   0.24293   0.01267  Uiso   1.00
C114   C     0.88621   0.07489   0.23436   0.01267  Uiso   1.00
C115   C     0.83180   0.01815   0.24995   0.01267  Uiso   1.00
C116   C     0.72390   0.14693   0.26683   0.01267  Uiso   1.00
C117   C     0.97960   0.09263   0.21253   0.01267  Uiso   1.00
C118   C     0.53260   0.78349   0.44399   0.01267  Uiso   1.00
C119   C     0.50543   0.75004   0.51245   0.01267  Uiso   1.00
C120   C     0.52945   0.70120   0.54155   0.01267  Uiso   1.00
C121   C     0.50096   0.66764   0.60426   0.01267  Uiso   1.00
C122   C     0.45205   0.68658   0.63883   0.01267  Uiso   1.00
C123   C     0.43031   0.73725   0.60982   0.01267  Uiso   1.00
C124   C     0.45603   0.76781   0.54582   0.01267  Uiso   1.00
C125   C     0.52341   0.61236   0.63523   0.01267  Uiso   1.00
C126   C     0.38019   0.75922   0.64625   0.01267  Uiso   1.00
C127   C     0.52590   0.77472   0.29692   0.01267  Uiso   1.00
C128   C     0.47891   0.72790   0.28427   0.01267  Uiso   1.00
C129   C     0.50201   0.67817   0.29214   0.01267  Uiso   1.00
C130   C     0.45682   0.63407   0.28461   0.01267  Uiso   1.00
C131   C     0.36440   0.68880   0.25690   0.01267  Uiso   1.00
C132   C     0.38840   0.63940   0.26570   0.01267  Uiso   1.00
C133   C     0.40990   0.73400   0.26490   0.01267  Uiso   1.00
C134   C     0.29380   0.69700   0.23120   0.01267  Uiso   1.00
C135   C     0.48453   0.57915   0.29206   0.01267  Uiso   1.00
C136   C     0.97740   0.29014   0.76924   0.01267  Uiso   1.00
C137   C     0.01477   0.27144   0.72543   0.01267  Uiso   1.00
C138   C     0.98499   0.27595   0.67978   0.01267  Uiso   1.00
C139   C     0.02420   0.26252   0.63662   0.01267  Uiso   1.00
C140   C     0.09278   0.24293   0.64139   0.01267  Uiso   1.00
C141   C     0.12057   0.23436   0.69075   0.01267  Uiso   1.00
C142   C     0.08175   0.24995   0.73190   0.01267  Uiso   1.00
C143   C     0.99073   0.26683   0.58624   0.01267  Uiso   1.00
C144   C     0.19213   0.21253   0.69484   0.01267  Uiso   1.00
C145   C     0.97659   0.44399   0.77252   0.01267  Uiso   1.00
C146   C     0.01788   0.51245   0.73751   0.01267  Uiso   1.00
C147   C     0.07100   0.54155   0.75725   0.01267  Uiso   1.00
C148   C     0.10522   0.60426   0.72810   0.01267  Uiso   1.00
C149   C     0.09088   0.63883   0.67459   0.01267  Uiso   1.00
C150   C     0.04013   0.60982   0.65293   0.01267  Uiso   1.00
C151   C     0.00185   0.54582   0.68637   0.01267  Uiso   1.00
C152   C     0.15864   0.63523   0.75241   0.01267  Uiso   1.00
C153   C     0.02644   0.64625   0.59453   0.01267  Uiso   1.00
C154   C     0.82282   0.29692   0.92836   0.01267  Uiso   1.00
C155   C     0.76318   0.28427   0.98783   0.01267  Uiso   1.00
C156   C     0.79415   0.29214   0.02969   0.01267  Uiso   1.00
C157   C     0.74143   0.28461   0.08132   0.01267  Uiso   1.00
C158   C     0.62130   0.25690   0.05430   0.01267  Uiso   1.00
C159   C     0.65410   0.26570   0.09490   0.01267  Uiso   1.00
C160   C     0.67480   0.26490   0.00110   0.01267  Uiso   1.00
C161   C     0.52500   0.23120   0.07180   0.01267  Uiso   1.00
C162   C     0.77659   0.29206   0.12879   0.01267  Uiso   1.00
O1     O     0.18160   0.19445   0.09915   0.01267  Uiso   1.00
O2     O     0.32381   0.23271   0.06748   0.01267  Uiso   1.00
O3     O     0.49054   0.41064   0.86042   0.01267  Uiso   1.00
O4     O     0.41653   0.45862   0.80883   0.01267  Uiso   1.00
O5     O     0.10943   0.35239   0.86730   0.01267  Uiso   1.00
O6     O     0.05215   0.25576   0.93201   0.01267  Uiso   1.00
O7     O     0.32203   0.23580   0.18481   0.01267  Uiso   1.00
O8     O     0.18167   0.19344   0.22213   0.01267  Uiso   1.00
O9     O     0.09669   0.27068   0.42261   0.01267  Uiso   1.00
O10    O     0.02541   0.20685   0.39832   0.01267  Uiso   1.00
O11    O     0.44413   0.42303   0.19714   0.01267  Uiso   1.00
O12    O     0.36846   0.43290   0.26992   0.01267  Uiso   1.00
O13    O     0.31881   0.11107   0.18794   0.01267  Uiso   1.00
O14    O     0.17691   0.07453   0.22640   0.01267  Uiso   1.00
O15    O     0.46240   0.95820   0.25380   0.01267  Uiso   1.00
O16    O     0.40226   0.88296   0.34638   0.01267  Uiso   1.00
O17    O     0.10274   0.82516   0.45994   0.01267  Uiso   1.00
O18    O     0.02751   0.88133   0.42230   0.01267  Uiso   1.00
O19    O     0.28075   0.09915   0.70640   0.01267  Uiso   1.00
O20    O     0.39129   0.06748   0.69981   0.01267  Uiso   1.00
O21    O     0.35096   0.86042   0.72894   0.01267  Uiso   1.00
O22    O     0.22536   0.80883   0.73255   0.01267  Uiso   1.00
O23    O     0.97673   0.86730   0.78031   0.01267  Uiso   1.00
O24    O     0.98416   0.93201   0.81223   0.01267  Uiso   1.00
O25    O     0.50684   0.18481   0.57939   0.01267  Uiso   1.00
O26    O     0.40380   0.22213   0.58443   0.01267  Uiso   1.00
O27    O     0.51930   0.42261   0.30671   0.01267  Uiso   1.00
O28    O     0.42373   0.39832   0.39483   0.01267  Uiso   1.00
O29    O     0.64127   0.19714   0.37983   0.01267  Uiso   1.00
O30    O     0.63838   0.26992   0.29718   0.01267  Uiso   1.00
O31    O     0.50675   0.18794   0.70099   0.01267  Uiso   1.00
O32    O     0.40331   0.22640   0.69907   0.01267  Uiso   1.00
O33    O     0.71620   0.25380   0.78800   0.01267  Uiso   1.00
O34    O     0.74864   0.34638   0.77066   0.01267  Uiso   1.00
O35    O     0.56268   0.45994   0.71490   0.01267  Uiso   1.00
O36    O     0.44981   0.42230   0.69637   0.01267  Uiso   1.00
O37    O     0.98715   0.70640   0.19445   0.01267  Uiso   1.00
O38    O     0.09110   0.69981   0.23271   0.01267  Uiso   1.00
O39    O     0.07990   0.72894   0.41064   0.01267  Uiso   1.00
O40    O     0.95791   0.73255   0.45862   0.01267  Uiso   1.00
O41    O     0.75704   0.78031   0.35239   0.01267  Uiso   1.00
O42    O     0.79639   0.81223   0.25576   0.01267  Uiso   1.00
O43    O     0.08623   0.57939   0.23580   0.01267  Uiso   1.00
O44    O     0.98823   0.58443   0.19344   0.01267  Uiso   1.00
O45    O     0.82601   0.30671   0.27068   0.01267  Uiso   1.00
O46    O     0.81856   0.39483   0.20685   0.01267  Uiso   1.00
O47    O     0.02110   0.37983   0.42303   0.01267  Uiso   1.00
O48    O     0.93556   0.29718   0.43290   0.01267  Uiso   1.00
O49    O     0.20774   0.70099   0.11107   0.01267  Uiso   1.00
O50    O     0.10238   0.69907   0.07453   0.01267  Uiso   1.00
O51    O     0.50420   0.78800   0.95820   0.01267  Uiso   1.00
O52    O     0.51930   0.77066   0.88296   0.01267  Uiso   1.00
O53    O     0.27758   0.71490   0.82516   0.01267  Uiso   1.00
O54    O     0.14618   0.69637   0.88133   0.01267  Uiso   1.00
O55    O     0.81840   0.80555   0.90085   0.01267  Uiso   1.00
O56    O     0.67619   0.76729   0.93252   0.01267  Uiso   1.00
O57    O     0.50946   0.58936   0.13958   0.01267  Uiso   1.00
O58    O     0.58347   0.54138   0.19117   0.01267  Uiso   1.00
O59    O     0.89057   0.64761   0.13270   0.01267  Uiso   1.00
O60    O     0.94785   0.74424   0.06799   0.01267  Uiso   1.00
O61    O     0.67797   0.76420   0.81519   0.01267  Uiso   1.00
O62    O     0.81833   0.80656   0.77787   0.01267  Uiso   1.00
O63    O     0.90331   0.72932   0.57739   0.01267  Uiso   1.00
O64    O     0.97459   0.79315   0.60168   0.01267  Uiso   1.00
O65    O     0.55587   0.57697   0.80286   0.01267  Uiso   1.00
O66    O     0.63154   0.56710   0.73008   0.01267  Uiso   1.00
O67    O     0.68119   0.88893   0.81206   0.01267  Uiso   1.00
O68    O     0.82309   0.92547   0.77360   0.01267  Uiso   1.00
O69    O     0.53760   0.04180   0.74620   0.01267  Uiso   1.00
O70    O     0.59774   0.11704   0.65362   0.01267  Uiso   1.00
O71    O     0.89726   0.17484   0.54006   0.01267  Uiso   1.00
O72    O     0.97249   0.11867   0.57770   0.01267  Uiso   1.00
O73    O     0.71925   0.90085   0.29360   0.01267  Uiso   1.00
O74    O     0.60871   0.93252   0.30019   0.01267  Uiso   1.00
O75    O     0.64904   0.13958   0.27106   0.01267  Uiso   1.00
O76    O     0.77464   0.19117   0.26745   0.01267  Uiso   1.00
O77    O     0.02327   0.13270   0.21969   0.01267  Uiso   1.00
O78    O     0.01584   0.06799   0.18777   0.01267  Uiso   1.00
O79    O     0.49316   0.81519   0.42061   0.01267  Uiso   1.00
O80    O     0.59620   0.77787   0.41557   0.01267  Uiso   1.00
O81    O     0.48070   0.57739   0.69329   0.01267  Uiso   1.00
O82    O     0.57627   0.60168   0.60517   0.01267  Uiso   1.00
O83    O     0.35873   0.80286   0.62017   0.01267  Uiso   1.00
O84    O     0.36162   0.73008   0.70282   0.01267  Uiso   1.00
O85    O     0.49325   0.81206   0.29901   0.01267  Uiso   1.00
O86    O     0.59669   0.77360   0.30093   0.01267  Uiso   1.00
O87    O     0.28380   0.74620   0.21200   0.01267  Uiso   1.00
O88    O     0.25136   0.65362   0.22934   0.01267  Uiso   1.00
O89    O     0.43732   0.54006   0.28510   0.01267  Uiso   1.00
O90    O     0.55019   0.57770   0.30363   0.01267  Uiso   1.00
O91    O     0.01285   0.29360   0.80555   0.01267  Uiso   1.00
O92    O     0.90890   0.30019   0.76729   0.01267  Uiso   1.00
O93    O     0.92010   0.27106   0.58936   0.01267  Uiso   1.00
O94    O     0.04209   0.26745   0.54138   0.01267  Uiso   1.00
O95    O     0.24296   0.21969   0.64761   0.01267  Uiso   1.00
O96    O     0.20361   0.18777   0.74424   0.01267  Uiso   1.00
O97    O     0.91377   0.42061   0.76420   0.01267  Uiso   1.00
O98    O     0.01177   0.41557   0.80656   0.01267  Uiso   1.00
O99    O     0.17399   0.69329   0.72932   0.01267  Uiso   1.00
O100   O     0.18144   0.60517   0.79315   0.01267  Uiso   1.00
O101   O     0.97890   0.62017   0.57697   0.01267  Uiso   1.00
O102   O     0.06444   0.70282   0.56710   0.01267  Uiso   1.00
O103   O     0.79226   0.29901   0.88893   0.01267  Uiso   1.00
O104   O     0.89762   0.30093   0.92547   0.01267  Uiso   1.00
O105   O     0.49580   0.21200   0.04180   0.01267  Uiso   1.00
O106   O     0.48070   0.22934   0.11704   0.01267  Uiso   1.00
O107   O     0.72242   0.28510   0.17484   0.01267  Uiso   1.00
O108   O     0.85382   0.30363   0.11867   0.01267  Uiso   1.00
H55    H     0.65250   0.14930   0.45690   0.01267  Uiso   1.00
H56    H     0.03150   0.95590   0.42670   0.01267  Uiso   1.00
H57    H     0.75560   0.22490   0.44970   0.01267  Uiso   1.00
H58    H     0.78070   0.17400   0.49480   0.01267  Uiso   1.00
H59    H     0.80540   0.20850   0.37420   0.01267  Uiso   1.00
H60    H     0.87560   0.21050   0.40380   0.01267  Uiso   1.00
H61    H     0.89050   0.11780   0.47190   0.01267  Uiso   1.00
H62    H     0.79400   0.08110   0.51320   0.01267  Uiso   1.00
H63    H     0.78940   0.01350   0.48820   0.01267  Uiso   1.00
H64    H     0.86360   0.02200   0.51230   0.01267  Uiso   1.00
H65    H     0.92390   0.08290   0.33590   0.01267  Uiso   1.00
H66    H     0.82610   0.05220   0.37510   0.01267  Uiso   1.00
H67    H     0.86270   0.15590   0.32820   0.01267  Uiso   1.00
H68    H     0.93490   0.16190   0.35550   0.01267  Uiso   1.00
H69    H     0.01650   0.10920   0.39820   0.01267  Uiso   1.00
H70    H     0.99830   0.05280   0.46210   0.01267  Uiso   1.00
H71    H     0.03030   0.04310   0.35460   0.01267  Uiso   1.00
H72    H     0.10390   0.05650   0.37970   0.01267  Uiso   1.00
C163   C     0.75880   0.18470   0.46170   0.01267  Uiso   1.00
C164   C     0.81790   0.18750   0.41080   0.01267  Uiso   1.00
C165   C     0.83700   0.09180   0.47560   0.01267  Uiso   1.00
C166   C     0.84600   0.04070   0.47790   0.01267  Uiso   1.00
C167   C     0.88100   0.07630   0.37160   0.01267  Uiso   1.00
C168   C     0.87870   0.13600   0.36320   0.01267  Uiso   1.00
C169   C     0.99400   0.06490   0.42230   0.01267  Uiso   1.00
C170   C     0.04280   0.03840   0.39070   0.01267  Uiso   1.00
N1     N     0.81174   0.12694   0.42242   0.01267  Uiso   1.00
N2     N     0.90100   0.03980   0.42840   0.01267  Uiso   1.00
O109   O     0.67204   0.14020   0.48428   0.01267  Uiso   1.00
O110   O     0.00930   0.97570   0.43840   0.01267  Uiso   1.00
H73    H     0.50460   0.91700   0.44990   0.01267  Uiso   1.00
H74    H     0.55550   0.93430   0.48700   0.01267  Uiso   1.00
H75    H     0.60460   0.94630   0.42190   0.01267  Uiso   1.00
H76    H     0.43940   0.97770   0.40860   0.01267  Uiso   1.00
H77    H     0.50170   0.04250   0.35460   0.01267  Uiso   1.00
H78    H     0.45070   0.03470   0.41730   0.01267  Uiso   1.00
C171   C     0.61470   0.05380   0.41540   0.01267  Uiso   1.00
C172   C     0.55390   0.94600   0.44680   0.01267  Uiso   1.00
C173   C     0.47920   0.01600   0.39830   0.01267  Uiso   1.00
N3     N     0.54866   0.00602   0.41964   0.01267  Uiso   1.00
O111   O     0.67729   0.04628   0.42951   0.01267  Uiso   1.00
H79    H     0.78040   0.75620   0.52910   0.01267  Uiso   1.00
H80    H     0.80270   0.78190   0.45880   0.01267  Uiso   1.00
H81    H     0.71030   0.76710   0.50040   0.01267  Uiso   1.00
H82    H     0.83360   0.82140   0.55470   0.01267  Uiso   1.00
H83    H     0.79630   0.87350   0.54290   0.01267  Uiso   1.00
H84    H     0.88770   0.88760   0.50030   0.01267  Uiso   1.00
C174   C     0.78360   0.88770   0.43200   0.01267  Uiso   1.00
C175   C     0.76980   0.78200   0.49400   0.01267  Uiso   1.00
C176   C     0.83110   0.85770   0.52380   0.01267  Uiso   1.00
N4     N     0.79430   0.84350   0.48380   0.01267  Uiso   1.00
O112   O     0.81660   0.93940   0.42610   0.01267  Uiso   1.00
H85    H     0.14550   0.19880   0.85240   0.01267  Uiso   1.00
H86    H     0.16290   0.19690   0.90990   0.01267  Uiso   1.00
H87    H     0.19970   0.16130   0.88090   0.01267  Uiso   1.00
H88    H     0.21690   0.29350   0.77010   0.01267  Uiso   1.00
H89    H     0.31690   0.31670   0.74560   0.01267  Uiso   1.00
H90    H     0.26840   0.33660   0.78830   0.01267  Uiso   1.00
C177   C     0.33530   0.26060   0.85270   0.01267  Uiso   1.00
C178   C     0.18630   0.19730   0.87250   0.01267  Uiso   1.00
C179   C     0.26670   0.30380   0.77980   0.01267  Uiso   1.00
N5     N     0.26380   0.25100   0.83290   0.01267  Uiso   1.00
O113   O     0.34130   0.21710   0.89620   0.01267  Uiso   1.00
H91    H     0.77050   0.27020   0.51900   0.01267  Uiso   1.00
H92    H     0.67720   0.23810   0.56670   0.01267  Uiso   1.00
H93    H     0.75150   0.26970   0.58120   0.01267  Uiso   1.00
H94    H     0.77830   0.33820   0.44300   0.01267  Uiso   1.00
H95    H     0.76660   0.39820   0.43790   0.01267  Uiso   1.00
H96    H     0.68960   0.34590   0.44680   0.01267  Uiso   1.00
C180   C     0.65410   0.34010   0.55950   0.01267  Uiso   1.00
C181   C     0.72960   0.27180   0.54970   0.01267  Uiso   1.00
C182   C     0.73930   0.35490   0.45700   0.01267  Uiso   1.00
N6     N     0.71450   0.32820   0.52240   0.01267  Uiso   1.00
O114   O     0.64190   0.38910   0.53470   0.01267  Uiso   1.00
H97    H     0.50590   0.32030   0.89860   0.01267  Uiso   1.00
H98    H     0.57670   0.31360   0.85470   0.01267  Uiso   1.00
H99    H     0.57540   0.29670   0.92060   0.01267  Uiso   1.00
H100   H     0.46990   0.14880   0.93710   0.01267  Uiso   1.00
H101   H     0.55310   0.18000   0.94400   0.01267  Uiso   1.00
H102   H     0.55000   0.19790   0.87880   0.01267  Uiso   1.00
C183   C     0.54060   0.29650   0.89640   0.01267  Uiso   1.00
C184   C     0.51750   0.18610   0.91980   0.01267  Uiso   1.00
N7     N     0.48610   0.23420   0.91930   0.01267  Uiso   1.00
H103   H     0.10940   0.45690   0.39380   0.01267  Uiso   1.00
H104   H     0.45820   0.42670   0.61740   0.01267  Uiso   1.00
H105   H     0.20530   0.44970   0.32540   0.01267  Uiso   1.00
H106   H     0.27550   0.49480   0.33120   0.01267  Uiso   1.00
H107   H     0.17960   0.37420   0.41730   0.01267  Uiso   1.00
H108   H     0.27940   0.40380   0.38570   0.01267  Uiso   1.00
H109   H     0.36240   0.47190   0.41030   0.01267  Uiso   1.00
H110   H     0.30720   0.51320   0.40570   0.01267  Uiso   1.00
H111   H     0.27760   0.48820   0.49830   0.01267  Uiso   1.00
H112   H     0.37590   0.51230   0.46570   0.01267  Uiso   1.00
H113   H     0.25980   0.33590   0.58120   0.01267  Uiso   1.00
H114   H     0.20120   0.37510   0.57270   0.01267  Uiso   1.00
H115   H     0.19090   0.32820   0.51590   0.01267  Uiso   1.00
H116   H     0.29040   0.35550   0.48260   0.01267  Uiso   1.00
H117   H     0.41470   0.39820   0.49260   0.01267  Uiso   1.00
H118   H     0.46040   0.46210   0.48510   0.01267  Uiso   1.00
H119   H     0.38490   0.35460   0.60230   0.01267  Uiso   1.00
H120   H     0.48360   0.37970   0.56380   0.01267  Uiso   1.00
C185   C     0.22050   0.46170   0.35360   0.01267  Uiso   1.00
C186   C     0.22870   0.41080   0.40170   0.01267  Uiso   1.00
C187   C     0.31260   0.47560   0.43260   0.01267  Uiso   1.00
C188   C     0.32390   0.47790   0.48140   0.01267  Uiso   1.00
C189   C     0.25260   0.37160   0.55210   0.01267  Uiso   1.00
C190   C     0.24190   0.36320   0.50080   0.01267  Uiso   1.00
C191   C     0.41630   0.42230   0.51280   0.01267  Uiso   1.00
C192   C     0.43350   0.39070   0.57090   0.01267  Uiso   1.00
N8     N     0.23416   0.42242   0.45064   0.01267  Uiso   1.00
N9     N     0.32940   0.42840   0.53180   0.01267  Uiso   1.00
O115   O     0.15632   0.48428   0.37552   0.01267  Uiso   1.00
O116   O     0.44770   0.43840   0.58590   0.01267  Uiso   1.00
H121   H     0.95450   0.44990   0.63310   0.01267  Uiso   1.00
H122   H     0.04250   0.48700   0.57870   0.01267  Uiso   1.00
H123   H     0.02650   0.42190   0.63180   0.01267  Uiso   1.00
H124   H     0.84800   0.40860   0.61370   0.01267  Uiso   1.00
H125   H     0.85630   0.35460   0.60290   0.01267  Uiso   1.00
H126   H     0.86800   0.41730   0.54800   0.01267  Uiso   1.00
C193   C     0.03010   0.41540   0.53080   0.01267  Uiso   1.00
C194   C     0.00070   0.44680   0.60720   0.01267  Uiso   1.00
C195   C     0.87750   0.39830   0.58570   0.01267  Uiso   1.00
N10    N     0.96830   0.41964   0.57434   0.01267  Uiso   1.00
O117   O     0.10680   0.42951   0.52421   0.01267  Uiso   1.00
H127   H     0.30950   0.52910   0.71470   0.01267  Uiso   1.00
H128   H     0.26150   0.45880   0.75930   0.01267  Uiso   1.00
H129   H     0.21070   0.50040   0.73250   0.01267  Uiso   1.00
H130   H     0.38830   0.55470   0.62390   0.01267  Uiso   1.00
H131   H     0.33920   0.54290   0.58360   0.01267  Uiso   1.00
H132   H     0.38800   0.50030   0.61210   0.01267  Uiso   1.00
C196   C     0.21560   0.43200   0.68030   0.01267  Uiso   1.00
C197   C     0.26380   0.49400   0.72400   0.01267  Uiso   1.00
C198   C     0.35490   0.52380   0.61850   0.01267  Uiso   1.00
N11    N     0.27810   0.48380   0.67270   0.01267  Uiso   1.00
O118   O     0.24270   0.42610   0.63450   0.01267  Uiso   1.00
H133   H     0.99790   0.85240   0.94880   0.01267  Uiso   1.00
H134   H     0.07280   0.90990   0.89320   0.01267  Uiso   1.00
H135   H     0.08060   0.88090   0.95780   0.01267  Uiso   1.00
H136   H     0.98700   0.77010   0.93640   0.01267  Uiso   1.00
H137   H     0.06250   0.74560   0.93770   0.01267  Uiso   1.00
H138   H     0.05670   0.78830   0.87510   0.01267  Uiso   1.00
C199   C     0.18800   0.85270   0.88670   0.01267  Uiso   1.00
C200   C     0.05880   0.87250   0.93020   0.01267  Uiso   1.00
C201   C     0.04650   0.77980   0.91640   0.01267  Uiso   1.00
N12    N     0.09670   0.83290   0.91610   0.01267  Uiso   1.00
O119   O     0.23750   0.89620   0.88670   0.01267  Uiso   1.00
H139   H     0.28950   0.51900   0.21080   0.01267  Uiso   1.00
H140   H     0.24390   0.56670   0.19520   0.01267  Uiso   1.00
H141   H     0.33270   0.58120   0.14910   0.01267  Uiso   1.00
H142   H     0.22130   0.44300   0.21880   0.01267  Uiso   1.00
H143   H     0.20450   0.43790   0.16390   0.01267  Uiso   1.00
H144   H     0.13640   0.44680   0.20730   0.01267  Uiso   1.00
C202   C     0.21360   0.55950   0.10040   0.01267  Uiso   1.00
C203   C     0.27930   0.54970   0.17850   0.01267  Uiso   1.00
C204   C     0.19630   0.45700   0.18810   0.01267  Uiso   1.00
N13    N     0.23690   0.52240   0.14940   0.01267  Uiso   1.00
O120   O     0.17660   0.53470   0.07620   0.01267  Uiso   1.00
H145   H     0.40450   0.89860   0.78110   0.01267  Uiso   1.00
H146   H     0.43140   0.85470   0.83170   0.01267  Uiso   1.00
H147   H     0.49600   0.92060   0.78270   0.01267  Uiso   1.00
H148   H     0.40700   0.93710   0.91410   0.01267  Uiso   1.00
H149   H     0.49710   0.94400   0.87600   0.01267  Uiso   1.00
H150   H     0.42880   0.87880   0.92330   0.01267  Uiso   1.00
C205   C     0.43700   0.89640   0.80710   0.01267  Uiso   1.00
C206   C     0.43730   0.91980   0.89410   0.01267  Uiso   1.00
N14    N     0.40540   0.91930   0.84650   0.01267  Uiso   1.00
H151   H     0.50320   0.39380   0.14930   0.01267  Uiso   1.00
H152   H     0.07560   0.61740   0.95590   0.01267  Uiso   1.00
H153   H     0.53070   0.32540   0.22490   0.01267  Uiso   1.00
H154   H     0.60670   0.33120   0.17400   0.01267  Uiso   1.00
H155   H     0.59690   0.41730   0.20850   0.01267  Uiso   1.00
H156   H     0.66510   0.38570   0.21050   0.01267  Uiso   1.00
H157   H     0.77270   0.41030   0.11780   0.01267  Uiso   1.00
H158   H     0.71290   0.40570   0.08110   0.01267  Uiso   1.00
H159   H     0.77590   0.49830   0.01350   0.01267  Uiso   1.00
H160   H     0.84160   0.46570   0.02200   0.01267  Uiso   1.00
H161   H     0.84100   0.58120   0.08290   0.01267  Uiso   1.00
H162   H     0.77390   0.57270   0.05220   0.01267  Uiso   1.00
H163   H     0.70680   0.51590   0.15590   0.01267  Uiso   1.00
H164   H     0.77300   0.48260   0.16190   0.01267  Uiso   1.00
H165   H     0.90730   0.49260   0.10920   0.01267  Uiso   1.00
H166   H     0.94550   0.48510   0.05280   0.01267  Uiso   1.00
H167   H     0.98720   0.60230   0.04310   0.01267  Uiso   1.00
H168   H     0.04740   0.56380   0.05650   0.01267  Uiso   1.00
C207   C     0.57410   0.35360   0.18470   0.01267  Uiso   1.00
C208   C     0.63040   0.40170   0.18750   0.01267  Uiso   1.00
C209   C     0.74520   0.43260   0.09180   0.01267  Uiso   1.00
C210   C     0.80530   0.48140   0.04070   0.01267  Uiso   1.00
C211   C     0.80470   0.55210   0.07630   0.01267  Uiso   1.00
C212   C     0.74270   0.50080   0.13600   0.01267  Uiso   1.00
C213   C     0.92910   0.51280   0.06490   0.01267  Uiso   1.00
C214   C     0.00440   0.57090   0.03840   0.01267  Uiso   1.00
N15    N     0.68480   0.45064   0.12694   0.01267  Uiso   1.00
N16    N     0.86120   0.53180   0.03980   0.01267  Uiso   1.00
O121   O     0.53184   0.37552   0.14020   0.01267  Uiso   1.00
O122   O     0.03360   0.58590   0.97570   0.01267  Uiso   1.00
H169   H     0.58760   0.63310   0.91700   0.01267  Uiso   1.00
H170   H     0.62120   0.57870   0.93430   0.01267  Uiso   1.00
H171   H     0.65830   0.63180   0.94630   0.01267  Uiso   1.00
H172   H     0.46170   0.61370   0.97770   0.01267  Uiso   1.00
H173   H     0.45920   0.60290   0.04250   0.01267  Uiso   1.00
H174   H     0.41600   0.54800   0.03470   0.01267  Uiso   1.00
C215   C     0.56090   0.53080   0.05380   0.01267  Uiso   1.00
C216   C     0.60790   0.60720   0.94600   0.01267  Uiso   1.00
C217   C     0.46320   0.58570   0.01600   0.01267  Uiso   1.00
N17    N     0.54264   0.57434   0.00602   0.01267  Uiso   1.00
O123   O     0.63101   0.52421   0.04628   0.01267  Uiso   1.00
H175   H     0.02420   0.71470   0.75620   0.01267  Uiso   1.00
H176   H     0.02080   0.75930   0.78190   0.01267  Uiso   1.00
H177   H     0.94320   0.73250   0.76710   0.01267  Uiso   1.00
H178   H     0.01220   0.62390   0.82140   0.01267  Uiso   1.00
H179   H     0.92280   0.58360   0.87350   0.01267  Uiso   1.00
H180   H     0.00010   0.61210   0.88760   0.01267  Uiso   1.00
C218   C     0.89590   0.68030   0.88770   0.01267  Uiso   1.00
C219   C     0.98780   0.72400   0.78200   0.01267  Uiso   1.00
C220   C     0.97340   0.61850   0.85770   0.01267  Uiso   1.00
N18    N     0.95080   0.67270   0.84350   0.01267  Uiso   1.00
O124   O     0.87720   0.63450   0.93940   0.01267  Uiso   1.00
H181   H     0.94670   0.94880   0.19880   0.01267  Uiso   1.00
H182   H     0.96600   0.89320   0.19690   0.01267  Uiso   1.00
H183   H     0.03840   0.95780   0.16130   0.01267  Uiso   1.00
H184   H     0.92340   0.93640   0.29350   0.01267  Uiso   1.00
H185   H     0.00020   0.93770   0.31670   0.01267  Uiso   1.00
H186   H     0.93180   0.87510   0.33660   0.01267  Uiso   1.00
C221   C     0.07470   0.88670   0.26060   0.01267  Uiso   1.00
C222   C     0.98900   0.93020   0.19730   0.01267  Uiso   1.00
C223   C     0.96290   0.91640   0.30380   0.01267  Uiso   1.00
N19    N     0.01280   0.91610   0.25100   0.01267  Uiso   1.00
O125   O     0.12420   0.88670   0.21710   0.01267  Uiso   1.00
H187   H     0.50030   0.21080   0.27020   0.01267  Uiso   1.00
H188   H     0.43910   0.19520   0.23810   0.01267  Uiso   1.00
H189   H     0.48180   0.14910   0.26970   0.01267  Uiso   1.00
H190   H     0.44010   0.21880   0.33820   0.01267  Uiso   1.00
H191   H     0.36840   0.16390   0.39820   0.01267  Uiso   1.00
H192   H     0.34370   0.20730   0.34590   0.01267  Uiso   1.00
C224   C     0.31400   0.10040   0.34010   0.01267  Uiso   1.00
C225   C     0.45780   0.17850   0.27180   0.01267  Uiso   1.00
C226   C     0.38440   0.18810   0.35490   0.01267  Uiso   1.00
N20    N     0.38630   0.14940   0.32820   0.01267  Uiso   1.00
O126   O     0.25280   0.07620   0.38910   0.01267  Uiso   1.00
H193   H     0.18560   0.78110   0.32030   0.01267  Uiso   1.00
H194   H     0.26310   0.83170   0.31360   0.01267  Uiso   1.00
H195   H     0.27870   0.78270   0.29670   0.01267  Uiso   1.00
H196   H     0.32110   0.91410   0.14880   0.01267  Uiso   1.00
H197   H     0.37310   0.87600   0.18000   0.01267  Uiso   1.00
H198   H     0.35210   0.92330   0.19790   0.01267  Uiso   1.00
C227   C     0.24410   0.80710   0.29650   0.01267  Uiso   1.00
C228   C     0.33140   0.89410   0.18610   0.01267  Uiso   1.00
N21    N     0.25190   0.84650   0.23420   0.01267  Uiso   1.00
H199   H     0.34750   0.85070   0.54310   0.01267  Uiso   1.00
H200   H     0.96850   0.04410   0.57330   0.01267  Uiso   1.00
H201   H     0.24440   0.77510   0.55030   0.01267  Uiso   1.00
H202   H     0.21930   0.82600   0.50520   0.01267  Uiso   1.00
H203   H     0.19460   0.79150   0.62580   0.01267  Uiso   1.00
H204   H     0.12440   0.78950   0.59620   0.01267  Uiso   1.00
H205   H     0.10950   0.88220   0.52810   0.01267  Uiso   1.00
H206   H     0.20600   0.91890   0.48680   0.01267  Uiso   1.00
H207   H     0.21060   0.98650   0.51180   0.01267  Uiso   1.00
H208   H     0.13640   0.97800   0.48770   0.01267  Uiso   1.00
H209   H     0.07610   0.91710   0.66410   0.01267  Uiso   1.00
H210   H     0.17390   0.94780   0.62490   0.01267  Uiso   1.00
H211   H     0.13730   0.84410   0.67180   0.01267  Uiso   1.00
H212   H     0.06510   0.83810   0.64450   0.01267  Uiso   1.00
H213   H     0.98350   0.89080   0.60180   0.01267  Uiso   1.00
H214   H     0.00170   0.94720   0.53790   0.01267  Uiso   1.00
H215   H     0.96970   0.95690   0.64540   0.01267  Uiso   1.00
H216   H     0.89610   0.94350   0.62030   0.01267  Uiso   1.00
C229   C     0.24120   0.81530   0.53830   0.01267  Uiso   1.00
C230   C     0.18210   0.81250   0.58920   0.01267  Uiso   1.00
C231   C     0.16300   0.90820   0.52440   0.01267  Uiso   1.00
C232   C     0.15400   0.95930   0.52210   0.01267  Uiso   1.00
C233   C     0.11900   0.92370   0.62840   0.01267  Uiso   1.00
C234   C     0.12130   0.86400   0.63680   0.01267  Uiso   1.00
C235   C     0.00600   0.93510   0.57770   0.01267  Uiso   1.00
C236   C     0.95720   0.96160   0.60930   0.01267  Uiso   1.00
N22    N     0.18826   0.87306   0.57758   0.01267  Uiso   1.00
N23    N     0.09900   0.96020   0.57160   0.01267  Uiso   1.00
O127   O     0.32796   0.85980   0.51572   0.01267  Uiso   1.00
O128   O     0.99070   0.02430   0.56160   0.01267  Uiso   1.00
H217   H     0.49540   0.08300   0.55010   0.01267  Uiso   1.00
H218   H     0.44450   0.06570   0.51300   0.01267  Uiso   1.00
H219   H     0.39540   0.05370   0.57810   0.01267  Uiso   1.00
H220   H     0.56060   0.02230   0.59140   0.01267  Uiso   1.00
H221   H     0.49830   0.95750   0.64540   0.01267  Uiso   1.00
H222   H     0.54930   0.96530   0.58270   0.01267  Uiso   1.00
C237   C     0.38530   0.94620   0.58460   0.01267  Uiso   1.00
C238   C     0.44610   0.05400   0.55320   0.01267  Uiso   1.00
C239   C     0.52080   0.98400   0.60170   0.01267  Uiso   1.00
N24    N     0.45134   0.99398   0.58036   0.01267  Uiso   1.00
O129   O     0.32271   0.95372   0.57049   0.01267  Uiso   1.00
H223   H     0.21960   0.24380   0.47090   0.01267  Uiso   1.00
H224   H     0.19730   0.21810   0.54120   0.01267  Uiso   1.00
H225   H     0.28970   0.23290   0.49960   0.01267  Uiso   1.00
H226   H     0.16640   0.17860   0.44530   0.01267  Uiso   1.00
H227   H     0.20370   0.12650   0.45710   0.01267  Uiso   1.00
H228   H     0.11230   0.11240   0.49970   0.01267  Uiso   1.00
C240   C     0.21640   0.11230   0.56800   0.01267  Uiso   1.00
C241   C     0.23020   0.21800   0.50600   0.01267  Uiso   1.00
C242   C     0.16890   0.14230   0.47620   0.01267  Uiso   1.00
N25    N     0.20570   0.15650   0.51620   0.01267  Uiso   1.00
O130   O     0.18340   0.06060   0.57390   0.01267  Uiso   1.00
H229   H     0.85450   0.80120   0.14760   0.01267  Uiso   1.00
H230   H     0.83710   0.80310   0.09010   0.01267  Uiso   1.00
H231   H     0.80030   0.83870   0.11910   0.01267  Uiso   1.00
H232   H     0.78310   0.70650   0.22990   0.01267  Uiso   1.00
H233   H     0.68310   0.68330   0.25440   0.01267  Uiso   1.00
H234   H     0.73160   0.66340   0.21170   0.01267  Uiso   1.00
C243   C     0.66470   0.73940   0.14730   0.01267  Uiso   1.00
C244   C     0.81370   0.80270   0.12750   0.01267  Uiso   1.00
C245   C     0.73330   0.69620   0.22020   0.01267  Uiso   1.00
N26    N     0.73620   0.74900   0.16710   0.01267  Uiso   1.00
O131   O     0.65870   0.78290   0.10380   0.01267  Uiso   1.00
H235   H     0.22950   0.72980   0.48100   0.01267  Uiso   1.00
H236   H     0.32280   0.76190   0.43330   0.01267  Uiso   1.00
H237   H     0.24850   0.73030   0.41880   0.01267  Uiso   1.00
H238   H     0.22170   0.66180   0.55700   0.01267  Uiso   1.00
H239   H     0.23340   0.60180   0.56210   0.01267  Uiso   1.00
H240   H     0.31040   0.65410   0.55320   0.01267  Uiso   1.00
C246   C     0.34590   0.65990   0.44050   0.01267  Uiso   1.00
C247   C     0.27040   0.72820   0.45030   0.01267  Uiso   1.00
C248   C     0.26070   0.64510   0.54300   0.01267  Uiso   1.00
N27    N     0.28550   0.67180   0.47760   0.01267  Uiso   1.00
O132   O     0.35810   0.61090   0.46530   0.01267  Uiso   1.00
H241   H     0.49410   0.67970   0.10140   0.01267  Uiso   1.00
H242   H     0.42330   0.68640   0.14530   0.01267  Uiso   1.00
H243   H     0.42460   0.70330   0.07940   0.01267  Uiso   1.00
H244   H     0.53010   0.85120   0.06290   0.01267  Uiso   1.00
H245   H     0.44690   0.82000   0.05600   0.01267  Uiso   1.00
H246   H     0.45000   0.80210   0.12120   0.01267  Uiso   1.00
C249   C     0.45940   0.70350   0.10360   0.01267  Uiso   1.00
C250   C     0.48250   0.81390   0.08020   0.01267  Uiso   1.00
N28    N     0.51390   0.76580   0.08070   0.01267  Uiso   1.00
H247   H     0.89060   0.54310   0.60620   0.01267  Uiso   1.00
H248   H     0.54180   0.57330   0.38260   0.01267  Uiso   1.00
H249   H     0.79470   0.55030   0.67460   0.01267  Uiso   1.00
H250   H     0.72450   0.50520   0.66880   0.01267  Uiso   1.00
H251   H     0.82040   0.62580   0.58270   0.01267  Uiso   1.00
H252   H     0.72060   0.59620   0.61430   0.01267  Uiso   1.00
H253   H     0.63760   0.52810   0.58970   0.01267  Uiso   1.00
H254   H     0.69280   0.48680   0.59430   0.01267  Uiso   1.00
H255   H     0.72240   0.51180   0.50170   0.01267  Uiso   1.00
H256   H     0.62410   0.48770   0.53430   0.01267  Uiso   1.00
H257   H     0.74020   0.66410   0.41880   0.01267  Uiso   1.00
H258   H     0.79880   0.62490   0.42730   0.01267  Uiso   1.00
H259   H     0.80910   0.67180   0.48410   0.01267  Uiso   1.00
H260   H     0.70960   0.64450   0.51740   0.01267  Uiso   1.00
H261   H     0.58530   0.60180   0.50740   0.01267  Uiso   1.00
H262   H     0.53960   0.53790   0.51490   0.01267  Uiso   1.00
H263   H     0.61510   0.64540   0.39770   0.01267  Uiso   1.00
H264   H     0.51640   0.62030   0.43620   0.01267  Uiso   1.00
C251   C     0.77950   0.53830   0.64640   0.01267  Uiso   1.00
C252   C     0.77130   0.58920   0.59830   0.01267  Uiso   1.00
C253   C     0.68740   0.52440   0.56740   0.01267  Uiso   1.00
C254   C     0.67610   0.52210   0.51860   0.01267  Uiso   1.00
C255   C     0.74740   0.62840   0.44790   0.01267  Uiso   1.00
C256   C     0.75810   0.63680   0.49920   0.01267  Uiso   1.00
C257   C     0.58370   0.57770   0.48720   0.01267  Uiso   1.00
C258   C     0.56650   0.60930   0.42910   0.01267  Uiso   1.00
N29    N     0.76584   0.57758   0.54936   0.01267  Uiso   1.00
N30    N     0.67060   0.57160   0.46820   0.01267  Uiso   1.00
O133   O     0.84368   0.51572   0.62448   0.01267  Uiso   1.00
O134   O     0.55230   0.56160   0.41410   0.01267  Uiso   1.00
H265   H     0.04550   0.55010   0.36690   0.01267  Uiso   1.00
H266   H     0.95750   0.51300   0.42130   0.01267  Uiso   1.00
H267   H     0.97350   0.57810   0.36820   0.01267  Uiso   1.00
H268   H     0.15200   0.59140   0.38630   0.01267  Uiso   1.00
H269   H     0.14370   0.64540   0.39710   0.01267  Uiso   1.00
H270   H     0.13200   0.58270   0.45200   0.01267  Uiso   1.00
C259   C     0.96990   0.58460   0.46920   0.01267  Uiso   1.00
C260   C     0.99930   0.55320   0.39280   0.01267  Uiso   1.00
C261   C     0.12250   0.60170   0.41430   0.01267  Uiso   1.00
N31    N     0.03170   0.58036   0.42566   0.01267  Uiso   1.00
O135   O     0.89320   0.57049   0.47579   0.01267  Uiso   1.00
H271   H     0.69050   0.47090   0.28530   0.01267  Uiso   1.00
H272   H     0.73850   0.54120   0.24070   0.01267  Uiso   1.00
H273   H     0.78930   0.49960   0.26750   0.01267  Uiso   1.00
H274   H     0.61170   0.44530   0.37610   0.01267  Uiso   1.00
H275   H     0.66080   0.45710   0.41640   0.01267  Uiso   1.00
H276   H     0.61200   0.49970   0.38790   0.01267  Uiso   1.00
C262   C     0.78440   0.56800   0.31970   0.01267  Uiso   1.00
C263   C     0.73620   0.50600   0.27600   0.01267  Uiso   1.00
C264   C     0.64510   0.47620   0.38150   0.01267  Uiso   1.00
N32    N     0.72190   0.51620   0.32730   0.01267  Uiso   1.00
O136   O     0.75730   0.57390   0.36550   0.01267  Uiso   1.00
H277   H     0.00210   0.14760   0.05120   0.01267  Uiso   1.00
H278   H     0.92720   0.09010   0.10680   0.01267  Uiso   1.00
H279   H     0.91940   0.11910   0.04220   0.01267  Uiso   1.00
H280   H     0.01300   0.22990   0.06360   0.01267  Uiso   1.00
H281   H     0.93750   0.25440   0.06230   0.01267  Uiso   1.00
H282   H     0.94330   0.21170   0.12490   0.01267  Uiso   1.00
C265   C     0.81200   0.14730   0.11330   0.01267  Uiso   1.00
C266   C     0.94120   0.12750   0.06980   0.01267  Uiso   1.00
C267   C     0.95350   0.22020   0.08360   0.01267  Uiso   1.00
N33    N     0.90330   0.16710   0.08390   0.01267  Uiso   1.00
O137   O     0.76250   0.10380   0.11330   0.01267  Uiso   1.00
H283   H     0.71050   0.48100   0.78920   0.01267  Uiso   1.00
H284   H     0.75610   0.43330   0.80480   0.01267  Uiso   1.00
H285   H     0.66730   0.41880   0.85090   0.01267  Uiso   1.00
H286   H     0.77870   0.55700   0.78120   0.01267  Uiso   1.00
H287   H     0.79550   0.56210   0.83610   0.01267  Uiso   1.00
H288   H     0.86360   0.55320   0.79270   0.01267  Uiso   1.00
C268   C     0.78640   0.44050   0.89960   0.01267  Uiso   1.00
C269   C     0.72070   0.45030   0.82150   0.01267  Uiso   1.00
C270   C     0.80370   0.54300   0.81190   0.01267  Uiso   1.00
N34    N     0.76310   0.47760   0.85060   0.01267  Uiso   1.00
O138   O     0.82340   0.46530   0.92380   0.01267  Uiso   1.00
H289   H     0.59550   0.10140   0.21890   0.01267  Uiso   1.00
H290   H     0.56860   0.14530   0.16830   0.01267  Uiso   1.00
H291   H     0.50400   0.07940   0.21730   0.01267  Uiso   1.00
H292   H     0.59300   0.06290   0.08590   0.01267  Uiso   1.00
H293   H     0.50290   0.05600   0.12400   0.01267  Uiso   1.00
H294   H     0.57120   0.12120   0.07670   0.01267  Uiso   1.00
C271   C     0.56300   0.10360   0.19290   0.01267  Uiso   1.00
C272   C     0.56270   0.08020   0.10590   0.01267  Uiso   1.00
N35    N     0.59460   0.08070   0.15350   0.01267  Uiso   1.00
H295   H     0.49680   0.60620   0.85070   0.01267  Uiso   1.00
H296   H     0.92440   0.38260   0.04410   0.01267  Uiso   1.00
H297   H     0.46930   0.67460   0.77510   0.01267  Uiso   1.00
H298   H     0.39330   0.66880   0.82600   0.01267  Uiso   1.00
H299   H     0.40310   0.58270   0.79150   0.01267  Uiso   1.00
H300   H     0.33490   0.61430   0.78950   0.01267  Uiso   1.00
H301   H     0.22730   0.58970   0.88220   0.01267  Uiso   1.00
H302   H     0.28710   0.59430   0.91890   0.01267  Uiso   1.00
H303   H     0.22410   0.50170   0.98650   0.01267  Uiso   1.00
H304   H     0.15840   0.53430   0.97800   0.01267  Uiso   1.00
H305   H     0.15900   0.41880   0.91710   0.01267  Uiso   1.00
H306   H     0.22610   0.42730   0.94780   0.01267  Uiso   1.00
H307   H     0.29320   0.48410   0.84410   0.01267  Uiso   1.00
H308   H     0.22700   0.51740   0.83810   0.01267  Uiso   1.00
H309   H     0.09270   0.50740   0.89080   0.01267  Uiso   1.00
H310   H     0.05450   0.51490   0.94720   0.01267  Uiso   1.00
H311   H     0.01280   0.39770   0.95690   0.01267  Uiso   1.00
H312   H     0.95260   0.43620   0.94350   0.01267  Uiso   1.00
C273   C     0.42590   0.64640   0.81530   0.01267  Uiso   1.00
C274   C     0.36960   0.59830   0.81250   0.01267  Uiso   1.00
C275   C     0.25480   0.56740   0.90820   0.01267  Uiso   1.00
C276   C     0.19470   0.51860   0.95930   0.01267  Uiso   1.00
C277   C     0.19530   0.44790   0.92370   0.01267  Uiso   1.00
C278   C     0.25730   0.49920   0.86400   0.01267  Uiso   1.00
C279   C     0.07090   0.48720   0.93510   0.01267  Uiso   1.00
C280   C     0.99560   0.42910   0.96160   0.01267  Uiso   1.00
N36    N     0.31520   0.54936   0.87306   0.01267  Uiso   1.00
N37    N     0.13880   0.46820   0.96020   0.01267  Uiso   1.00
O139   O     0.46816   0.62448   0.85980   0.01267  Uiso   1.00
O140   O     0.96640   0.41410   0.02430   0.01267  Uiso   1.00
H313   H     0.41240   0.36690   0.08300   0.01267  Uiso   1.00
H314   H     0.37880   0.42130   0.06570   0.01267  Uiso   1.00
H315   H     0.34170   0.36820   0.05370   0.01267  Uiso   1.00
H316   H     0.53830   0.38630   0.02230   0.01267  Uiso   1.00
H317   H     0.54080   0.39710   0.95750   0.01267  Uiso   1.00
H318   H     0.58400   0.45200   0.96530   0.01267  Uiso   1.00
C281   C     0.43910   0.46920   0.94620   0.01267  Uiso   1.00
C282   C     0.39210   0.39280   0.05400   0.01267  Uiso   1.00
C283   C     0.53680   0.41430   0.98400   0.01267  Uiso   1.00
N38    N     0.45736   0.42566   0.99398   0.01267  Uiso   1.00
O141   O     0.36899   0.47579   0.95372   0.01267  Uiso   1.00
H319   H     0.97580   0.28530   0.24380   0.01267  Uiso   1.00
H320   H     0.97920   0.24070   0.21810   0.01267  Uiso   1.00
H321   H     0.05680   0.26750   0.23290   0.01267  Uiso   1.00
H322   H     0.98780   0.37610   0.17860   0.01267  Uiso   1.00
H323   H     0.07720   0.41640   0.12650   0.01267  Uiso   1.00
H324   H     0.99990   0.38790   0.11240   0.01267  Uiso   1.00
C284   C     0.10410   0.31970   0.11230   0.01267  Uiso   1.00
C285   C     0.01220   0.27600   0.21800   0.01267  Uiso   1.00
C286   C     0.02660   0.38150   0.14230   0.01267  Uiso   1.00
N39    N     0.04920   0.32730   0.15650   0.01267  Uiso   1.00
O142   O     0.12280   0.36550   0.06060   0.01267  Uiso   1.00
H325   H     0.05330   0.05120   0.80120   0.01267  Uiso   1.00
H326   H     0.03400   0.10680   0.80310   0.01267  Uiso   1.00
H327   H     0.96160   0.04220   0.83870   0.01267  Uiso   1.00
H328   H     0.07660   0.06360   0.70650   0.01267  Uiso   1.00
H329   H     0.99980   0.06230   0.68330   0.01267  Uiso   1.00
H330   H     0.06820   0.12490   0.66340   0.01267  Uiso   1.00
C287   C     0.92530   0.11330   0.73940   0.01267  Uiso   1.00
C288   C     0.01100   0.06980   0.80270   0.01267  Uiso   1.00
C289   C     0.03710   0.08360   0.69620   0.01267  Uiso   1.00
N40    N     0.98720   0.08390   0.74900   0.01267  Uiso   1.00
O143   O     0.87580   0.11330   0.78290   0.01267  Uiso   1.00
H331   H     0.49970   0.78920   0.72980   0.01267  Uiso   1.00
H332   H     0.56090   0.80480   0.76190   0.01267  Uiso   1.00
H333   H     0.51820   0.85090   0.73030   0.01267  Uiso   1.00
H334   H     0.55990   0.78120   0.66180   0.01267  Uiso   1.00
H335   H     0.63160   0.83610   0.60180   0.01267  Uiso   1.00
H336   H     0.65630   0.79270   0.65410   0.01267  Uiso   1.00
C290   C     0.68600   0.89960   0.65990   0.01267  Uiso   1.00
C291   C     0.54220   0.82150   0.72820   0.01267  Uiso   1.00
C292   C     0.61560   0.81190   0.64510   0.01267  Uiso   1.00
N41    N     0.61370   0.85060   0.67180   0.01267  Uiso   1.00
O144   O     0.74720   0.92380   0.61090   0.01267  Uiso   1.00
H337   H     0.81440   0.21890   0.67970   0.01267  Uiso   1.00
H338   H     0.73690   0.16830   0.68640   0.01267  Uiso   1.00
H339   H     0.72130   0.21730   0.70330   0.01267  Uiso   1.00
H340   H     0.67890   0.08590   0.85120   0.01267  Uiso   1.00
H341   H     0.62690   0.12400   0.82000   0.01267  Uiso   1.00
H342   H     0.64790   0.07670   0.80210   0.01267  Uiso   1.00
C293   C     0.75590   0.19290   0.70350   0.01267  Uiso   1.00
C294   C     0.66860   0.10590   0.81390   0.01267  Uiso   1.00
N42    N     0.74810   0.15350   0.76580   0.01267  Uiso   1.00
