data_PEJRIH_clean
_audit_creation_date              2014-07-02
_audit_creation_method            'Materials Studio'
_symmetry_space_group_name_H-M    'P1'
_symmetry_Int_Tables_number       1
_symmetry_cell_setting            triclinic
loop_
_symmetry_equiv_pos_as_xyz
  x,y,z
_cell_length_a                    20.9300
_cell_length_b                    28.1106
_cell_length_c                    30.6790
_cell_angle_alpha                 84.6064
_cell_angle_beta                  75.3751
_cell_angle_gamma                 68.1437
loop_
_atom_site_label
_atom_site_type_symbol
_atom_site_fract_x
_atom_site_fract_y
_atom_site_fract_z
_atom_site_U_iso_or_equiv
_atom_site_adp_type
_atom_site_occupancy
Co1    Co    0.42534   0.27284   0.51529   0.01267  Uiso   1.00
Co2    Co    0.57239   0.22764   0.48965   0.01267  Uiso   1.00
Co3    Co    0.80085   0.27320   0.98881   0.01267  Uiso   1.00
Co4    Co    0.70018   0.22584   0.01368   0.01267  Uiso   1.00
Co5    Co    0.30182   0.27284   0.98471   0.01267  Uiso   1.00
Co6    Co    0.19997   0.22764   0.01035   0.01267  Uiso   1.00
Co7    Co    0.92595   0.27320   0.51119   0.01267  Uiso   1.00
Co8    Co    0.07398   0.22584   0.48632   0.01267  Uiso   1.00
Co9    Co    0.57466   0.72716   0.48471   0.01267  Uiso   1.00
Co10   Co    0.42761   0.77236   0.51035   0.01267  Uiso   1.00
Co11   Co    0.19915   0.72680   0.01119   0.01267  Uiso   1.00
Co12   Co    0.29982   0.77416   0.98632   0.01267  Uiso   1.00
Co13   Co    0.69818   0.72716   0.01529   0.01267  Uiso   1.00
Co14   Co    0.80003   0.77236   0.98965   0.01267  Uiso   1.00
Co15   Co    0.07405   0.72680   0.48881   0.01267  Uiso   1.00
Co16   Co    0.92602   0.77416   0.51368   0.01267  Uiso   1.00
H1     H     0.94430   0.98280   0.81230   0.01267  Uiso   1.00
H2     H     0.91720   0.02520   0.77690   0.01267  Uiso   1.00
H3     H     0.86160   0.04800   0.85500   0.01267  Uiso   1.00
H4     H     0.80660   0.10280   0.91790   0.01267  Uiso   1.00
H5     H     0.96430   0.15520   0.89310   0.01267  Uiso   1.00
H6     H     0.02730   0.09680   0.83450   0.01267  Uiso   1.00
H7     H     0.94150   0.95980   0.72100   0.01267  Uiso   1.00
H8     H     0.96160   0.91940   0.75930   0.01267  Uiso   1.00
H9     H     0.91460   0.89860   0.69730   0.01267  Uiso   1.00
H10    H     0.89490   0.85640   0.64390   0.01267  Uiso   1.00
H11    H     0.09950   0.81060   0.58110   0.01267  Uiso   1.00
H12    H     0.12190   0.84740   0.63710   0.01267  Uiso   1.00
H13    H     0.69340   0.40000   0.08420   0.01267  Uiso   1.00
H14    H     0.63340   0.45640   0.14180   0.01267  Uiso   1.00
H15    H     0.47300   0.40360   0.16340   0.01267  Uiso   1.00
H16    H     0.53550   0.34720   0.10350   0.01267  Uiso   1.00
H17    H     0.57460   0.47880   0.22110   0.01267  Uiso   1.00
H18    H     0.54410   0.52180   0.18720   0.01267  Uiso   1.00
H19    H     0.52610   0.58300   0.24430   0.01267  Uiso   1.00
H20    H     0.54350   0.54300   0.28320   0.01267  Uiso   1.00
H21    H     0.43010   0.47640   0.27700   0.01267  Uiso   1.00
H22    H     0.41930   0.51680   0.31310   0.01267  Uiso   1.00
H23    H     0.37230   0.58180   0.25910   0.01267  Uiso   1.00
H24    H     0.39360   0.54400   0.21860   0.01267  Uiso   1.00
H25    H     0.40260   0.45580   0.36110   0.01267  Uiso   1.00
H26    H     0.40110   0.39800   0.41850   0.01267  Uiso   1.00
H27    H     0.61330   0.33720   0.38400   0.01267  Uiso   1.00
H28    H     0.61500   0.39360   0.32510   0.01267  Uiso   1.00
H29    H     0.36260   0.65220   0.35880   0.01267  Uiso   1.00
H30    H     0.56930   0.60380   0.31080   0.01267  Uiso   1.00
H31    H     0.30370   0.60480   0.19600   0.01267  Uiso   1.00
H32    H     0.24950   0.64420   0.13920   0.01267  Uiso   1.00
H33    H     0.41010   0.69400   0.08540   0.01267  Uiso   1.00
H34    H     0.46480   0.64920   0.14260   0.01267  Uiso   1.00
H35    H     0.65820   0.12620   0.01310   0.01267  Uiso   1.00
H36    H     0.53840   0.26940   0.00810   0.01267  Uiso   1.00
H37    H     0.46900   0.21740   0.00050   0.01267  Uiso   1.00
H38    H     0.58930   0.07200   0.05240   0.01267  Uiso   1.00
H39    H     0.56560   0.99780   0.04790   0.01267  Uiso   1.00
H40    H     0.47520   0.14080   0.96430   0.01267  Uiso   1.00
H41    H     0.57930   0.64540   0.36720   0.01267  Uiso   1.00
H42    H     0.37230   0.69980   0.41310   0.01267  Uiso   1.00
H43    H     0.32240   0.32840   0.60550   0.01267  Uiso   1.00
H44    H     0.27540   0.33940   0.48800   0.01267  Uiso   1.00
H45    H     0.20510   0.39620   0.61180   0.01267  Uiso   1.00
H46    H     0.15370   0.36840   0.48590   0.01267  Uiso   1.00
H47    H     0.05650   0.42320   0.46330   0.01267  Uiso   1.00
H48    H     0.03270   0.52200   0.55590   0.01267  Uiso   1.00
H49    H     0.13320   0.46740   0.57680   0.01267  Uiso   1.00
H50    H     0.58120   0.14480   0.37550   0.01267  Uiso   1.00
H51    H     0.37000   0.20060   0.41670   0.01267  Uiso   1.00
H52    H     0.72380   0.16340   0.51560   0.01267  Uiso   1.00
H53    H     0.67770   0.17300   0.39880   0.01267  Uiso   1.00
H54    H     0.79220   0.10600   0.39120   0.01267  Uiso   1.00
H55    H     0.83970   0.13060   0.52120   0.01267  Uiso   1.00
H56    H     0.94730   0.07360   0.53740   0.01267  Uiso   1.00
H57    H     0.96740   0.97700   0.44430   0.01267  Uiso   1.00
H58    H     0.86210   0.03280   0.42600   0.01267  Uiso   1.00
H59    H     0.61440   0.83640   0.38070   0.01267  Uiso   1.00
H60    H     0.62020   0.89680   0.32220   0.01267  Uiso   1.00
H61    H     0.40570   0.95640   0.35540   0.01267  Uiso   1.00
H62    H     0.40550   0.89960   0.41620   0.01267  Uiso   1.00
H63    H     0.42270   0.02200   0.31180   0.01267  Uiso   1.00
H64    H     0.43570   0.98160   0.27520   0.01267  Uiso   1.00
H65    H     0.54890   0.04520   0.28490   0.01267  Uiso   1.00
H66    H     0.53750   0.08380   0.24430   0.01267  Uiso   1.00
H67    H     0.57650   0.10360   0.31460   0.01267  Uiso   1.00
H68    H     0.36220   0.16020   0.35650   0.01267  Uiso   1.00
H69    H     0.45280   0.06660   0.95920   0.01267  Uiso   1.00
H70    H     0.84120   0.37320   0.98820   0.01267  Uiso   1.00
H71    H     0.96700   0.23080   0.99320   0.01267  Uiso   1.00
H72    H     0.02010   0.35900   0.03700   0.01267  Uiso   1.00
H73    H     0.04060   0.43220   0.04570   0.01267  Uiso   1.00
H74    H     0.03150   0.28520   0.00160   0.01267  Uiso   1.00
H75    H     0.93620   0.50060   0.95280   0.01267  Uiso   1.00
H76    H     0.90850   0.42920   0.94920   0.01267  Uiso   1.00
H77    H     0.07290   0.98280   0.68770   0.01267  Uiso   1.00
H78    H     0.05760   0.02520   0.72310   0.01267  Uiso   1.00
H79    H     0.09040   0.04800   0.64500   0.01267  Uiso   1.00
H80    H     0.09060   0.10280   0.58210   0.01267  Uiso   1.00
H81    H     0.88050   0.15520   0.60690   0.01267  Uiso   1.00
H82    H     0.87590   0.09680   0.66550   0.01267  Uiso   1.00
H83    H     0.09870   0.95980   0.77900   0.01267  Uiso   1.00
H84    H     0.11900   0.91940   0.74070   0.01267  Uiso   1.00
H85    H     0.18680   0.89860   0.80270   0.01267  Uiso   1.00
H86    H     0.24870   0.85640   0.85610   0.01267  Uiso   1.00
H87    H     0.08990   0.81060   0.91890   0.01267  Uiso   1.00
H88    H     0.03070   0.84740   0.86290   0.01267  Uiso   1.00
H89    H     0.90660   0.40000   0.41580   0.01267  Uiso   1.00
H90    H     0.91020   0.45640   0.35820   0.01267  Uiso   1.00
H91    H     0.12340   0.40360   0.33660   0.01267  Uiso   1.00
H92    H     0.11730   0.34720   0.39650   0.01267  Uiso   1.00
H93    H     0.94660   0.47880   0.27890   0.01267  Uiso   1.00
H94    H     0.93410   0.52180   0.31280   0.01267  Uiso   1.00
H95    H     0.89090   0.58300   0.25570   0.01267  Uiso   1.00
H96    H     0.91350   0.54300   0.21680   0.01267  Uiso   1.00
H97    H     0.09350   0.47640   0.22300   0.01267  Uiso   1.00
H98    H     0.06390   0.51680   0.18690   0.01267  Uiso   1.00
H99    H     0.04590   0.58180   0.24090   0.01267  Uiso   1.00
H100   H     0.06240   0.54400   0.28140   0.01267  Uiso   1.00
H101   H     0.14160   0.45580   0.13890   0.01267  Uiso   1.00
H102   H     0.20090   0.39800   0.08150   0.01267  Uiso   1.00
H103   H     0.04950   0.33720   0.11600   0.01267  Uiso   1.00
H104   H     0.99140   0.39360   0.17490   0.01267  Uiso   1.00
H105   H     0.98520   0.65220   0.14120   0.01267  Uiso   1.00
H106   H     0.82690   0.60380   0.18920   0.01267  Uiso   1.00
H107   H     0.09150   0.60480   0.30400   0.01267  Uiso   1.00
H108   H     0.10630   0.64420   0.36080   0.01267  Uiso   1.00
H109   H     0.89590   0.69400   0.41460   0.01267  Uiso   1.00
H110   H     0.88600   0.64920   0.35740   0.01267  Uiso   1.00
H111   H     0.21560   0.12620   0.48690   0.01267  Uiso   1.00
H112   H     0.19220   0.26940   0.49190   0.01267  Uiso   1.00
H113   H     0.31360   0.21740   0.49950   0.01267  Uiso   1.00
H114   H     0.33870   0.07200   0.44760   0.01267  Uiso   1.00
H115   H     0.43660   0.99780   0.45210   0.01267  Uiso   1.00
H116   H     0.38400   0.14080   0.53570   0.01267  Uiso   1.00
H117   H     0.77530   0.64540   0.13280   0.01267  Uiso   1.00
H118   H     0.92790   0.69980   0.08690   0.01267  Uiso   1.00
H119   H     0.34920   0.32840   0.89450   0.01267  Uiso   1.00
H120   H     0.38520   0.33940   0.01200   0.01267  Uiso   1.00
H121   H     0.39870   0.39620   0.88820   0.01267  Uiso   1.00
H122   H     0.47790   0.36840   0.01410   0.01267  Uiso   1.00
H123   H     0.52030   0.42320   0.03670   0.01267  Uiso   1.00
H124   H     0.44530   0.52200   0.94410   0.01267  Uiso   1.00
H125   H     0.39940   0.46740   0.92320   0.01267  Uiso   1.00
H126   H     0.27400   0.14480   0.12450   0.01267  Uiso   1.00
H127   H     0.42940   0.20060   0.08330   0.01267  Uiso   1.00
H128   H     0.11280   0.16340   0.98440   0.01267  Uiso   1.00
H129   H     0.14930   0.17300   0.10120   0.01267  Uiso   1.00
H130   H     0.10180   0.10600   0.10880   0.01267  Uiso   1.00
H131   H     0.02970   0.13060   0.97880   0.01267  Uiso   1.00
H132   H     0.97910   0.07360   0.96260   0.01267  Uiso   1.00
H133   H     0.05560   0.97700   0.05570   0.01267  Uiso   1.00
H134   H     0.10510   0.03280   0.07400   0.01267  Uiso   1.00
H135   H     0.54920   0.83640   0.11930   0.01267  Uiso   1.00
H136   H     0.48300   0.89680   0.17780   0.01267  Uiso   1.00
H137   H     0.63790   0.95640   0.14460   0.01267  Uiso   1.00
H138   H     0.69490   0.89960   0.08380   0.01267  Uiso   1.00
H139   H     0.55530   0.02200   0.18820   0.01267  Uiso   1.00
H140   H     0.58270   0.98160   0.22480   0.01267  Uiso   1.00
H141   H     0.40590   0.04520   0.21510   0.01267  Uiso   1.00
H142   H     0.37870   0.08380   0.25570   0.01267  Uiso   1.00
H143   H     0.31990   0.10360   0.18540   0.01267  Uiso   1.00
H144   H     0.47760   0.16020   0.14350   0.01267  Uiso   1.00
H145   H     0.48060   0.06660   0.54080   0.01267  Uiso   1.00
H146   H     0.78560   0.37320   0.51180   0.01267  Uiso   1.00
H147   H     0.80220   0.23080   0.50680   0.01267  Uiso   1.00
H148   H     0.62090   0.35900   0.46300   0.01267  Uiso   1.00
H149   H     0.52720   0.43220   0.45430   0.01267  Uiso   1.00
H150   H     0.68330   0.28520   0.49840   0.01267  Uiso   1.00
H151   H     0.56320   0.50060   0.54720   0.01267  Uiso   1.00
H152   H     0.66230   0.42920   0.55080   0.01267  Uiso   1.00
H153   H     0.05570   0.01720   0.18770   0.01267  Uiso   1.00
H154   H     0.08280   0.97480   0.22310   0.01267  Uiso   1.00
H155   H     0.13840   0.95200   0.14500   0.01267  Uiso   1.00
H156   H     0.19340   0.89720   0.08210   0.01267  Uiso   1.00
H157   H     0.03570   0.84480   0.10690   0.01267  Uiso   1.00
H158   H     0.97270   0.90320   0.16550   0.01267  Uiso   1.00
H159   H     0.05850   0.04020   0.27900   0.01267  Uiso   1.00
H160   H     0.03840   0.08060   0.24070   0.01267  Uiso   1.00
H161   H     0.08540   0.10140   0.30270   0.01267  Uiso   1.00
H162   H     0.10510   0.14360   0.35610   0.01267  Uiso   1.00
H163   H     0.90050   0.18940   0.41890   0.01267  Uiso   1.00
H164   H     0.87810   0.15260   0.36290   0.01267  Uiso   1.00
H165   H     0.30660   0.60000   0.91580   0.01267  Uiso   1.00
H166   H     0.36660   0.54360   0.85820   0.01267  Uiso   1.00
H167   H     0.52700   0.59640   0.83660   0.01267  Uiso   1.00
H168   H     0.46450   0.65280   0.89650   0.01267  Uiso   1.00
H169   H     0.42540   0.52120   0.77890   0.01267  Uiso   1.00
H170   H     0.45590   0.47820   0.81280   0.01267  Uiso   1.00
H171   H     0.47390   0.41700   0.75570   0.01267  Uiso   1.00
H172   H     0.45650   0.45700   0.71680   0.01267  Uiso   1.00
H173   H     0.56990   0.52360   0.72300   0.01267  Uiso   1.00
H174   H     0.58070   0.48320   0.68690   0.01267  Uiso   1.00
H175   H     0.62770   0.41820   0.74090   0.01267  Uiso   1.00
H176   H     0.60640   0.45600   0.78140   0.01267  Uiso   1.00
H177   H     0.59740   0.54420   0.63890   0.01267  Uiso   1.00
H178   H     0.59890   0.60200   0.58150   0.01267  Uiso   1.00
H179   H     0.38670   0.66280   0.61600   0.01267  Uiso   1.00
H180   H     0.38500   0.60640   0.67490   0.01267  Uiso   1.00
H181   H     0.63740   0.34780   0.64120   0.01267  Uiso   1.00
H182   H     0.43070   0.39620   0.68920   0.01267  Uiso   1.00
H183   H     0.69630   0.39520   0.80400   0.01267  Uiso   1.00
H184   H     0.75050   0.35580   0.86080   0.01267  Uiso   1.00
H185   H     0.58990   0.30600   0.91460   0.01267  Uiso   1.00
H186   H     0.53520   0.35080   0.85740   0.01267  Uiso   1.00
H187   H     0.34180   0.87380   0.98690   0.01267  Uiso   1.00
H188   H     0.46160   0.73060   0.99190   0.01267  Uiso   1.00
H189   H     0.53100   0.78260   0.99950   0.01267  Uiso   1.00
H190   H     0.41070   0.92800   0.94760   0.01267  Uiso   1.00
H191   H     0.43440   0.00220   0.95210   0.01267  Uiso   1.00
H192   H     0.52480   0.85920   0.03570   0.01267  Uiso   1.00
H193   H     0.42070   0.35460   0.63280   0.01267  Uiso   1.00
H194   H     0.62770   0.30020   0.58690   0.01267  Uiso   1.00
H195   H     0.67760   0.67160   0.39450   0.01267  Uiso   1.00
H196   H     0.72460   0.66060   0.51200   0.01267  Uiso   1.00
H197   H     0.79490   0.60380   0.38820   0.01267  Uiso   1.00
H198   H     0.84630   0.63160   0.51410   0.01267  Uiso   1.00
H199   H     0.94350   0.57680   0.53670   0.01267  Uiso   1.00
H200   H     0.96730   0.47800   0.44410   0.01267  Uiso   1.00
H201   H     0.86680   0.53260   0.42320   0.01267  Uiso   1.00
H202   H     0.41880   0.85520   0.62450   0.01267  Uiso   1.00
H203   H     0.63000   0.79940   0.58330   0.01267  Uiso   1.00
H204   H     0.27620   0.83660   0.48440   0.01267  Uiso   1.00
H205   H     0.32230   0.82700   0.60120   0.01267  Uiso   1.00
H206   H     0.20780   0.89400   0.60880   0.01267  Uiso   1.00
H207   H     0.16030   0.86940   0.47880   0.01267  Uiso   1.00
H208   H     0.05270   0.92640   0.46260   0.01267  Uiso   1.00
H209   H     0.03260   0.02300   0.55570   0.01267  Uiso   1.00
H210   H     0.13790   0.96720   0.57400   0.01267  Uiso   1.00
H211   H     0.38560   0.16360   0.61930   0.01267  Uiso   1.00
H212   H     0.37980   0.10320   0.67780   0.01267  Uiso   1.00
H213   H     0.59430   0.04360   0.64460   0.01267  Uiso   1.00
H214   H     0.59450   0.10040   0.58380   0.01267  Uiso   1.00
H215   H     0.57730   0.97800   0.68820   0.01267  Uiso   1.00
H216   H     0.56430   0.01840   0.72480   0.01267  Uiso   1.00
H217   H     0.45110   0.95480   0.71510   0.01267  Uiso   1.00
H218   H     0.46250   0.91620   0.75570   0.01267  Uiso   1.00
H219   H     0.42350   0.89640   0.68540   0.01267  Uiso   1.00
H220   H     0.63780   0.83980   0.64350   0.01267  Uiso   1.00
H221   H     0.54720   0.93340   0.04080   0.01267  Uiso   1.00
H222   H     0.15880   0.62680   0.01180   0.01267  Uiso   1.00
H223   H     0.03300   0.76920   0.00680   0.01267  Uiso   1.00
H224   H     0.97990   0.64100   0.96300   0.01267  Uiso   1.00
H225   H     0.95940   0.56780   0.95430   0.01267  Uiso   1.00
H226   H     0.96850   0.71480   0.99840   0.01267  Uiso   1.00
H227   H     0.06380   0.49940   0.04720   0.01267  Uiso   1.00
H228   H     0.09150   0.57080   0.05080   0.01267  Uiso   1.00
H229   H     0.92710   0.01720   0.31230   0.01267  Uiso   1.00
H230   H     0.94240   0.97480   0.27690   0.01267  Uiso   1.00
H231   H     0.90960   0.95200   0.35500   0.01267  Uiso   1.00
H232   H     0.90940   0.89720   0.41790   0.01267  Uiso   1.00
H233   H     0.11950   0.84480   0.39310   0.01267  Uiso   1.00
H234   H     0.12410   0.90320   0.33450   0.01267  Uiso   1.00
H235   H     0.90130   0.04020   0.22100   0.01267  Uiso   1.00
H236   H     0.88100   0.08060   0.25930   0.01267  Uiso   1.00
H237   H     0.81320   0.10140   0.19730   0.01267  Uiso   1.00
H238   H     0.75130   0.14360   0.14390   0.01267  Uiso   1.00
H239   H     0.91010   0.18940   0.08110   0.01267  Uiso   1.00
H240   H     0.96930   0.15260   0.13710   0.01267  Uiso   1.00
H241   H     0.09340   0.60000   0.58420   0.01267  Uiso   1.00
H242   H     0.08980   0.54360   0.64180   0.01267  Uiso   1.00
H243   H     0.87660   0.59640   0.66340   0.01267  Uiso   1.00
H244   H     0.88270   0.65280   0.60350   0.01267  Uiso   1.00
H245   H     0.05340   0.52120   0.72110   0.01267  Uiso   1.00
H246   H     0.06590   0.47820   0.68720   0.01267  Uiso   1.00
H247   H     0.10910   0.41700   0.74430   0.01267  Uiso   1.00
H248   H     0.08650   0.45700   0.78320   0.01267  Uiso   1.00
H249   H     0.90650   0.52360   0.77700   0.01267  Uiso   1.00
H250   H     0.93610   0.48320   0.81310   0.01267  Uiso   1.00
H251   H     0.95410   0.41820   0.75910   0.01267  Uiso   1.00
H252   H     0.93760   0.45600   0.71860   0.01267  Uiso   1.00
H253   H     0.85840   0.54420   0.86110   0.01267  Uiso   1.00
H254   H     0.79910   0.60200   0.91850   0.01267  Uiso   1.00
H255   H     0.95050   0.66280   0.88400   0.01267  Uiso   1.00
H256   H     0.00860   0.60640   0.82510   0.01267  Uiso   1.00
H257   H     0.01480   0.34780   0.85880   0.01267  Uiso   1.00
H258   H     0.17310   0.39620   0.81080   0.01267  Uiso   1.00
H259   H     0.90850   0.39520   0.69600   0.01267  Uiso   1.00
H260   H     0.89370   0.35580   0.63920   0.01267  Uiso   1.00
H261   H     0.10410   0.30600   0.58540   0.01267  Uiso   1.00
H262   H     0.11400   0.35080   0.64260   0.01267  Uiso   1.00
H263   H     0.78440   0.87380   0.51310   0.01267  Uiso   1.00
H264   H     0.80780   0.73060   0.50810   0.01267  Uiso   1.00
H265   H     0.68640   0.78260   0.50050   0.01267  Uiso   1.00
H266   H     0.66130   0.92800   0.55240   0.01267  Uiso   1.00
H267   H     0.56340   0.00220   0.54790   0.01267  Uiso   1.00
H268   H     0.61600   0.85920   0.46430   0.01267  Uiso   1.00
H269   H     0.22470   0.35460   0.86720   0.01267  Uiso   1.00
H270   H     0.07210   0.30020   0.91310   0.01267  Uiso   1.00
H271   H     0.65080   0.67160   0.10550   0.01267  Uiso   1.00
H272   H     0.61480   0.66060   0.98800   0.01267  Uiso   1.00
H273   H     0.60130   0.60380   0.11180   0.01267  Uiso   1.00
H274   H     0.52210   0.63160   0.98590   0.01267  Uiso   1.00
H275   H     0.47970   0.57680   0.96330   0.01267  Uiso   1.00
H276   H     0.55470   0.47800   0.05590   0.01267  Uiso   1.00
H277   H     0.60060   0.53260   0.07680   0.01267  Uiso   1.00
H278   H     0.72600   0.85520   0.87550   0.01267  Uiso   1.00
H279   H     0.57060   0.79940   0.91670   0.01267  Uiso   1.00
H280   H     0.88720   0.83660   0.01560   0.01267  Uiso   1.00
H281   H     0.85070   0.82700   0.89880   0.01267  Uiso   1.00
H282   H     0.89820   0.89400   0.89120   0.01267  Uiso   1.00
H283   H     0.97030   0.86940   0.02120   0.01267  Uiso   1.00
H284   H     0.02090   0.92640   0.03740   0.01267  Uiso   1.00
H285   H     0.94440   0.02300   0.94430   0.01267  Uiso   1.00
H286   H     0.89490   0.96720   0.92600   0.01267  Uiso   1.00
H287   H     0.45080   0.16360   0.88070   0.01267  Uiso   1.00
H288   H     0.51700   0.10320   0.82220   0.01267  Uiso   1.00
H289   H     0.36210   0.04360   0.85540   0.01267  Uiso   1.00
H290   H     0.30510   0.10040   0.91620   0.01267  Uiso   1.00
H291   H     0.44470   0.97800   0.81180   0.01267  Uiso   1.00
H292   H     0.41730   0.01840   0.77520   0.01267  Uiso   1.00
H293   H     0.59410   0.95480   0.78490   0.01267  Uiso   1.00
H294   H     0.62130   0.91620   0.74430   0.01267  Uiso   1.00
H295   H     0.68010   0.89640   0.81460   0.01267  Uiso   1.00
H296   H     0.52240   0.83980   0.85650   0.01267  Uiso   1.00
H297   H     0.51940   0.93340   0.45920   0.01267  Uiso   1.00
H298   H     0.21440   0.62680   0.48820   0.01267  Uiso   1.00
H299   H     0.19780   0.76920   0.49320   0.01267  Uiso   1.00
H300   H     0.37910   0.64100   0.53700   0.01267  Uiso   1.00
H301   H     0.47280   0.56780   0.54570   0.01267  Uiso   1.00
H302   H     0.31670   0.71480   0.50160   0.01267  Uiso   1.00
H303   H     0.43680   0.49940   0.45280   0.01267  Uiso   1.00
H304   H     0.33770   0.57080   0.44920   0.01267  Uiso   1.00
C1     C     0.95857   0.00386   0.78770   0.01267  Uiso   1.00
C2     C     0.95012   0.06776   0.84010   0.01267  Uiso   1.00
C3     C     0.88279   0.06842   0.86330   0.01267  Uiso   1.00
C4     C     0.84997   0.10226   0.90000   0.01267  Uiso   1.00
C5     C     0.87894   0.13432   0.91040   0.01267  Uiso   1.00
C6     C     0.94489   0.13302   0.88580   0.01267  Uiso   1.00
C7     C     0.98230   0.09880   0.85060   0.01267  Uiso   1.00
C8     C     0.83742   0.17496   0.94640   0.01267  Uiso   1.00
C9     C     0.98004   0.93812   0.73430   0.01267  Uiso   1.00
C10    C     0.01857   0.87946   0.67140   0.01267  Uiso   1.00
C11    C     0.95198   0.88084   0.67400   0.01267  Uiso   1.00
C12    C     0.94030   0.85580   0.64180   0.01267  Uiso   1.00
C13    C     0.99515   0.82970   0.60640   0.01267  Uiso   1.00
C14    C     0.06242   0.82776   0.60470   0.01267  Uiso   1.00
C15    C     0.07591   0.85078   0.63750   0.01267  Uiso   1.00
C16    C     0.98479   0.80382   0.57030   0.01267  Uiso   1.00
C17    C     0.62489   0.36482   0.08970   0.01267  Uiso   1.00
C18    C     0.64967   0.39986   0.10090   0.01267  Uiso   1.00
C19    C     0.61370   0.43420   0.13490   0.01267  Uiso   1.00
C20    C     0.54776   0.43588   0.15920   0.01267  Uiso   1.00
C21    C     0.51772   0.40236   0.14750   0.01267  Uiso   1.00
C22    C     0.55570   0.36800   0.11220   0.01267  Uiso   1.00
C23    C     0.53214   0.49932   0.21112   0.01267  Uiso   1.00
C24    C     0.47565   0.53030   0.24991   0.01267  Uiso   1.00
C25    C     0.50636   0.56408   0.26850   0.01267  Uiso   1.00
C26    C     0.45268   0.49604   0.28770   0.01267  Uiso   1.00
C27    C     0.41021   0.56418   0.23390   0.01267  Uiso   1.00
C28    C     0.50680   0.43080   0.33640   0.01267  Uiso   1.00
C29    C     0.44526   0.43128   0.36510   0.01267  Uiso   1.00
C30    C     0.44404   0.39692   0.39960   0.01267  Uiso   1.00
C31    C     0.50738   0.36004   0.40640   0.01267  Uiso   1.00
C32    C     0.57074   0.36052   0.37870   0.01267  Uiso   1.00
C33    C     0.57205   0.39430   0.34390   0.01267  Uiso   1.00
C34    C     0.50451   0.32138   0.44380   0.01267  Uiso   1.00
C35    C     0.66875   0.32530   0.05380   0.01267  Uiso   1.00
C36    C     0.46485   0.62230   0.32940   0.01267  Uiso   1.00
C37    C     0.40726   0.65088   0.36010   0.01267  Uiso   1.00
C38    C     0.52887   0.62166   0.33220   0.01267  Uiso   1.00
C39    C     0.39055   0.62270   0.17360   0.01267  Uiso   1.00
C40    C     0.32579   0.62162   0.17320   0.01267  Uiso   1.00
C41    C     0.29331   0.64538   0.13910   0.01267  Uiso   1.00
C42    C     0.32410   0.67060   0.10530   0.01267  Uiso   1.00
C43    C     0.38951   0.67478   0.10660   0.01267  Uiso   1.00
C44    C     0.42112   0.64856   0.14160   0.01267  Uiso   1.00
C45    C     0.61943   0.15554   0.01080   0.01267  Uiso   1.00
C46    C     0.55440   0.23380   0.00800   0.01267  Uiso   1.00
C47    C     0.51523   0.20514   0.00400   0.01267  Uiso   1.00
C48    C     0.54079   0.11022   0.00400   0.01267  Uiso   1.00
C49    C     0.56386   0.07008   0.03220   0.01267  Uiso   1.00
C50    C     0.54785   0.02570   0.03000   0.01267  Uiso   1.00
C51    C     0.49621   0.11138   0.97970   0.01267  Uiso   1.00
C52    C     0.48573   0.70154   0.43480   0.01267  Uiso   1.00
C53    C     0.47879   0.67422   0.39770   0.01267  Uiso   1.00
C54    C     0.53454   0.64712   0.36610   0.01267  Uiso   1.00
C55    C     0.41277   0.67866   0.39370   0.01267  Uiso   1.00
C56    C     0.29758   0.33824   0.58295   0.01267  Uiso   1.00
C57    C     0.27144   0.34352   0.51840   0.01267  Uiso   1.00
C58    C     0.23237   0.37566   0.58688   0.01267  Uiso   1.00
C59    C     0.15296   0.41168   0.53300   0.01267  Uiso   1.00
C60    C     0.12924   0.40012   0.50000   0.01267  Uiso   1.00
C61    C     0.07046   0.43308   0.48630   0.01267  Uiso   1.00
C62    C     0.03247   0.47986   0.50590   0.01267  Uiso   1.00
C63    C     0.05791   0.49078   0.54090   0.01267  Uiso   1.00
C64    C     0.11764   0.45812   0.55430   0.01267  Uiso   1.00
C65    C     0.48006   0.20368   0.43940   0.01267  Uiso   1.00
C66    C     0.47534   0.17672   0.40150   0.01267  Uiso   1.00
C67    C     0.53763   0.14734   0.37120   0.01267  Uiso   1.00
C68    C     0.41090   0.18120   0.39640   0.01267  Uiso   1.00
C69    C     0.72615   0.15790   0.48570   0.01267  Uiso   1.00
C70    C     0.70190   0.16220   0.42160   0.01267  Uiso   1.00
C71    C     0.76495   0.12570   0.41670   0.01267  Uiso   1.00
C72    C     0.84714   0.08892   0.46960   0.01267  Uiso   1.00
C73    C     0.86653   0.10074   0.50460   0.01267  Uiso   1.00
C74    C     0.93057   0.06506   0.51510   0.01267  Uiso   1.00
C75    C     0.96837   0.01846   0.49320   0.01267  Uiso   1.00
C76    C     0.94253   0.00794   0.45970   0.01267  Uiso   1.00
C77    C     0.88007   0.04166   0.44750   0.01267  Uiso   1.00
C78    C     0.51112   0.82076   0.43850   0.01267  Uiso   1.00
C79    C     0.50914   0.86132   0.40340   0.01267  Uiso   1.00
C80    C     0.57255   0.86130   0.37590   0.01267  Uiso   1.00
C81    C     0.57715   0.89730   0.34060   0.01267  Uiso   1.00
C82    C     0.51405   0.93250   0.33550   0.01267  Uiso   1.00
C83    C     0.44784   0.93332   0.36140   0.01267  Uiso   1.00
C84    C     0.44832   0.89796   0.39670   0.01267  Uiso   1.00
C85    C     0.45729   0.00122   0.28680   0.01267  Uiso   1.00
C86    C     0.51432   0.06676   0.26850   0.01267  Uiso   1.00
C87    C     0.46937   0.12586   0.33130   0.01267  Uiso   1.00
C88    C     0.53530   0.12220   0.33520   0.01267  Uiso   1.00
C89    C     0.40610   0.15660   0.36090   0.01267  Uiso   1.00
C90    C     0.50849   0.02242   0.00310   0.01267  Uiso   1.00
C91    C     0.48146   0.06688   0.97780   0.01267  Uiso   1.00
C92    C     0.28891   0.69718   0.06740   0.01267  Uiso   1.00
C93    C     0.88043   0.34414   0.99030   0.01267  Uiso   1.00
C94    C     0.94922   0.26636   0.99330   0.01267  Uiso   1.00
C95    C     0.00043   0.38874   0.02140   0.01267  Uiso   1.00
C96    C     0.01520   0.43180   0.02500   0.01267  Uiso   1.00
C97    C     0.98561   0.29618   0.99740   0.01267  Uiso   1.00
C98    C     0.95249   0.47222   0.97080   0.01267  Uiso   1.00
C99    C     0.99374   0.47312   0.99950   0.01267  Uiso   1.00
C100   C     0.95874   0.39032   0.99580   0.01267  Uiso   1.00
C101   C     0.93539   0.43022   0.96870   0.01267  Uiso   1.00
C102   C     0.03757   0.00386   0.71230   0.01267  Uiso   1.00
C103   C     0.98212   0.06776   0.65990   0.01267  Uiso   1.00
C104   C     0.04879   0.06842   0.63670   0.01267  Uiso   1.00
C105   C     0.04777   0.10226   0.60000   0.01267  Uiso   1.00
C106   C     0.98674   0.13432   0.58960   0.01267  Uiso   1.00
C107   C     0.92209   0.13302   0.61420   0.01267  Uiso   1.00
C108   C     0.91890   0.09880   0.64940   0.01267  Uiso   1.00
C109   C     0.98762   0.17496   0.55360   0.01267  Uiso   1.00
C110   C     0.08184   0.93812   0.76570   0.01267  Uiso   1.00
C111   C     0.10197   0.87946   0.82860   0.01267  Uiso   1.00
C112   C     0.16718   0.88084   0.82600   0.01267  Uiso   1.00
C113   C     0.20390   0.85580   0.85820   0.01267  Uiso   1.00
C114   C     0.17515   0.82970   0.89360   0.01267  Uiso   1.00
C115   C     0.10982   0.82776   0.89530   0.01267  Uiso   1.00
C116   C     0.07331   0.85078   0.86250   0.01267  Uiso   1.00
C117   C     0.21139   0.80382   0.92970   0.01267  Uiso   1.00
C118   C     0.01029   0.36482   0.41030   0.01267  Uiso   1.00
C119   C     0.95047   0.39986   0.39910   0.01267  Uiso   1.00
C120   C     0.95210   0.43420   0.36510   0.01267  Uiso   1.00
C121   C     0.01636   0.43588   0.34080   0.01267  Uiso   1.00
C122   C     0.07992   0.40236   0.35250   0.01267  Uiso   1.00
C123   C     0.07630   0.36800   0.38780   0.01267  Uiso   1.00
C124   C     0.96854   0.49932   0.28888   0.01267  Uiso   1.00
C125   C     0.99405   0.53030   0.25009   0.01267  Uiso   1.00
C126   C     0.92956   0.56408   0.23150   0.01267  Uiso   1.00
C127   C     0.05128   0.49604   0.21230   0.01267  Uiso   1.00
C128   C     0.02561   0.56418   0.26610   0.01267  Uiso   1.00
C129   C     0.06240   0.43080   0.16360   0.01267  Uiso   1.00
C130   C     0.12346   0.43128   0.13490   0.01267  Uiso   1.00
C131   C     0.15904   0.39692   0.10040   0.01267  Uiso   1.00
C132   C     0.13258   0.36004   0.09360   0.01267  Uiso   1.00
C133   C     0.06874   0.36052   0.12130   0.01267  Uiso   1.00
C134   C     0.03365   0.39430   0.15610   0.01267  Uiso   1.00
C135   C     0.17411   0.32138   0.05620   0.01267  Uiso   1.00
C136   C     0.00595   0.32530   0.44620   0.01267  Uiso   1.00
C137   C     0.91285   0.62230   0.17060   0.01267  Uiso   1.00
C138   C     0.94186   0.65088   0.13990   0.01267  Uiso   1.00
C139   C     0.84947   0.62166   0.16780   0.01267  Uiso   1.00
C140   C     0.98675   0.62270   0.32640   0.01267  Uiso   1.00
C141   C     0.05259   0.62162   0.32680   0.01267  Uiso   1.00
C142   C     0.06131   0.64538   0.36090   0.01267  Uiso   1.00
C143   C     0.00530   0.67060   0.39470   0.01267  Uiso   1.00
C144   C     0.93571   0.67478   0.39340   0.01267  Uiso   1.00
C145   C     0.93032   0.64856   0.35840   0.01267  Uiso   1.00
C146   C     0.22503   0.15554   0.48920   0.01267  Uiso   1.00
C147   C     0.21180   0.23380   0.49200   0.01267  Uiso   1.00
C148   C     0.27963   0.20514   0.49600   0.01267  Uiso   1.00
C149   C     0.34899   0.11022   0.49600   0.01267  Uiso   1.00
C150   C     0.36606   0.07008   0.46780   0.01267  Uiso   1.00
C151   C     0.42645   0.02570   0.47000   0.01267  Uiso   1.00
C152   C     0.39241   0.11138   0.52030   0.01267  Uiso   1.00
C153   C     0.81273   0.70154   0.06520   0.01267  Uiso   1.00
C154   C     0.84699   0.67422   0.10230   0.01267  Uiso   1.00
C155   C     0.81834   0.64712   0.13390   0.01267  Uiso   1.00
C156   C     0.90857   0.67866   0.10630   0.01267  Uiso   1.00
C157   C     0.36418   0.33824   0.91705   0.01267  Uiso   1.00
C158   C     0.38504   0.34352   0.98160   0.01267  Uiso   1.00
C159   C     0.39197   0.37566   0.91312   0.01267  Uiso   1.00
C160   C     0.43536   0.41168   0.96700   0.01267  Uiso   1.00
C161   C     0.47064   0.40012  -0.00000   0.01267  Uiso   1.00
C162   C     0.49646   0.43308   0.01370   0.01267  Uiso   1.00
C163   C     0.48767   0.47986   0.99410   0.01267  Uiso   1.00
C164   C     0.45131   0.49078   0.95910   0.01267  Uiso   1.00
C165   C     0.42424   0.45812   0.94570   0.01267  Uiso   1.00
C166   C     0.31626   0.20368   0.06060   0.01267  Uiso   1.00
C167   C     0.34794   0.17672   0.09850   0.01267  Uiso   1.00
C168   C     0.31503   0.14734   0.12880   0.01267  Uiso   1.00
C169   C     0.40790   0.18120   0.10360   0.01267  Uiso   1.00
C170   C     0.11595   0.15790   0.01430   0.01267  Uiso   1.00
C171   C     0.13590   0.16220   0.07840   0.01267  Uiso   1.00
C172   C     0.10935   0.12570   0.08330   0.01267  Uiso   1.00
C173   C     0.06394   0.08892   0.03040   0.01267  Uiso   1.00
C174   C     0.03273   0.10074   0.99540   0.01267  Uiso   1.00
C175   C     0.00437   0.06506   0.98490   0.01267  Uiso   1.00
C176   C     0.01317   0.01846   0.00680   0.01267  Uiso   1.00
C177   C     0.04953   0.00794   0.04030   0.01267  Uiso   1.00
C178   C     0.07827   0.04166   0.05250   0.01267  Uiso   1.00
C179   C     0.66812   0.82076   0.06150   0.01267  Uiso   1.00
C180   C     0.62954   0.86132   0.09660   0.01267  Uiso   1.00
C181   C     0.56615   0.86130   0.12410   0.01267  Uiso   1.00
C182   C     0.52555   0.89730   0.15940   0.01267  Uiso   1.00
C183   C     0.55345   0.93250   0.16450   0.01267  Uiso   1.00
C184   C     0.61884   0.93332   0.13860   0.01267  Uiso   1.00
C185   C     0.65372   0.89796   0.10330   0.01267  Uiso   1.00
C186   C     0.54149   0.00122   0.21320   0.01267  Uiso   1.00
C187   C     0.41892   0.06676   0.23150   0.01267  Uiso   1.00
C188   C     0.40477   0.12586   0.16870   0.01267  Uiso   1.00
C189   C     0.34250   0.12220   0.16480   0.01267  Uiso   1.00
C190   C     0.43730   0.15660   0.13910   0.01267  Uiso   1.00
C191   C     0.46909   0.02242   0.49690   0.01267  Uiso   1.00
C192   C     0.45166   0.06688   0.52220   0.01267  Uiso   1.00
C193   C     0.01391   0.69718   0.43260   0.01267  Uiso   1.00
C194   C     0.77543   0.34414   0.50970   0.01267  Uiso   1.00
C195   C     0.78442   0.26636   0.50670   0.01267  Uiso   1.00
C196   C     0.61083   0.38874   0.47860   0.01267  Uiso   1.00
C197   C     0.55300   0.43180   0.47500   0.01267  Uiso   1.00
C198   C     0.71821   0.29618   0.50260   0.01267  Uiso   1.00
C199   C     0.57529   0.47222   0.52920   0.01267  Uiso   1.00
C200   C     0.53314   0.47312   0.50050   0.01267  Uiso   1.00
C201   C     0.65094   0.39032   0.50420   0.01267  Uiso   1.00
C202   C     0.63439   0.43022   0.53130   0.01267  Uiso   1.00
C203   C     0.04143   0.99614   0.21230   0.01267  Uiso   1.00
C204   C     0.04988   0.93224   0.15990   0.01267  Uiso   1.00
C205   C     0.11721   0.93158   0.13670   0.01267  Uiso   1.00
C206   C     0.15003   0.89774   0.10000   0.01267  Uiso   1.00
C207   C     0.12106   0.86568   0.08960   0.01267  Uiso   1.00
C208   C     0.05511   0.86698   0.11420   0.01267  Uiso   1.00
C209   C     0.01770   0.90120   0.14940   0.01267  Uiso   1.00
C210   C     0.16258   0.82504   0.05360   0.01267  Uiso   1.00
C211   C     0.01996   0.06188   0.26570   0.01267  Uiso   1.00
C212   C     0.98143   0.12054   0.32860   0.01267  Uiso   1.00
C213   C     0.04802   0.11916   0.32600   0.01267  Uiso   1.00
C214   C     0.05970   0.14420   0.35820   0.01267  Uiso   1.00
C215   C     0.00485   0.17030   0.39360   0.01267  Uiso   1.00
C216   C     0.93758   0.17224   0.39530   0.01267  Uiso   1.00
C217   C     0.92409   0.14922   0.36250   0.01267  Uiso   1.00
C218   C     0.01521   0.19618   0.42970   0.01267  Uiso   1.00
C219   C     0.37511   0.63518   0.91030   0.01267  Uiso   1.00
C220   C     0.35033   0.60014   0.89910   0.01267  Uiso   1.00
C221   C     0.38630   0.56580   0.86510   0.01267  Uiso   1.00
C222   C     0.45224   0.56412   0.84080   0.01267  Uiso   1.00
C223   C     0.48228   0.59764   0.85250   0.01267  Uiso   1.00
C224   C     0.44430   0.63200   0.88780   0.01267  Uiso   1.00
C225   C     0.46786   0.50068   0.78888   0.01267  Uiso   1.00
C226   C     0.52435   0.46970   0.75009   0.01267  Uiso   1.00
C227   C     0.49364   0.43592   0.73150   0.01267  Uiso   1.00
C228   C     0.54732   0.50396   0.71230   0.01267  Uiso   1.00
C229   C     0.58979   0.43582   0.76610   0.01267  Uiso   1.00
C230   C     0.49320   0.56920   0.66360   0.01267  Uiso   1.00
C231   C     0.55474   0.56872   0.63490   0.01267  Uiso   1.00
C232   C     0.55596   0.60308   0.60040   0.01267  Uiso   1.00
C233   C     0.49262   0.63996   0.59360   0.01267  Uiso   1.00
C234   C     0.42926   0.63948   0.62130   0.01267  Uiso   1.00
C235   C     0.42795   0.60570   0.65610   0.01267  Uiso   1.00
C236   C     0.49549   0.67862   0.55620   0.01267  Uiso   1.00
C237   C     0.33125   0.67470   0.94620   0.01267  Uiso   1.00
C238   C     0.53515   0.37770   0.67060   0.01267  Uiso   1.00
C239   C     0.59274   0.34912   0.63990   0.01267  Uiso   1.00
C240   C     0.47113   0.37834   0.66780   0.01267  Uiso   1.00
C241   C     0.60945   0.37730   0.82640   0.01267  Uiso   1.00
C242   C     0.67421   0.37838   0.82680   0.01267  Uiso   1.00
C243   C     0.70669   0.35462   0.86090   0.01267  Uiso   1.00
C244   C     0.67590   0.32940   0.89470   0.01267  Uiso   1.00
C245   C     0.61049   0.32522   0.89340   0.01267  Uiso   1.00
C246   C     0.57888   0.35144   0.85840   0.01267  Uiso   1.00
C247   C     0.38057   0.84446   0.98920   0.01267  Uiso   1.00
C248   C     0.44560   0.76620   0.99200   0.01267  Uiso   1.00
C249   C     0.48477   0.79486   0.99600   0.01267  Uiso   1.00
C250   C     0.45921   0.88978   0.99600   0.01267  Uiso   1.00
C251   C     0.43614   0.92992   0.96780   0.01267  Uiso   1.00
C252   C     0.45215   0.97430   0.97000   0.01267  Uiso   1.00
C253   C     0.50379   0.88862   0.02030   0.01267  Uiso   1.00
C254   C     0.51427   0.29846   0.56520   0.01267  Uiso   1.00
C255   C     0.52121   0.32578   0.60230   0.01267  Uiso   1.00
C256   C     0.46546   0.35288   0.63390   0.01267  Uiso   1.00
C257   C     0.58723   0.32134   0.60630   0.01267  Uiso   1.00
C258   C     0.70242   0.66176   0.41705   0.01267  Uiso   1.00
C259   C     0.72856   0.65648   0.48160   0.01267  Uiso   1.00
C260   C     0.76763   0.62434   0.41312   0.01267  Uiso   1.00
C261   C     0.84704   0.58832   0.46700   0.01267  Uiso   1.00
C262   C     0.87076   0.59988   0.50000   0.01267  Uiso   1.00
C263   C     0.92954   0.56692   0.51370   0.01267  Uiso   1.00
C264   C     0.96753   0.52014   0.49410   0.01267  Uiso   1.00
C265   C     0.94209   0.50922   0.45910   0.01267  Uiso   1.00
C266   C     0.88236   0.54188   0.44570   0.01267  Uiso   1.00
C267   C     0.51994   0.79632   0.56060   0.01267  Uiso   1.00
C268   C     0.52466   0.82328   0.59850   0.01267  Uiso   1.00
C269   C     0.46237   0.85266   0.62880   0.01267  Uiso   1.00
C270   C     0.58910   0.81880   0.60360   0.01267  Uiso   1.00
C271   C     0.27385   0.84210   0.51430   0.01267  Uiso   1.00
C272   C     0.29810   0.83780   0.57840   0.01267  Uiso   1.00
C273   C     0.23505   0.87430   0.58330   0.01267  Uiso   1.00
C274   C     0.15286   0.91108   0.53040   0.01267  Uiso   1.00
C275   C     0.13347   0.89926   0.49540   0.01267  Uiso   1.00
C276   C     0.06943   0.93494   0.48490   0.01267  Uiso   1.00
C277   C     0.03163   0.98154   0.50680   0.01267  Uiso   1.00
C278   C     0.05747   0.99206   0.54030   0.01267  Uiso   1.00
C279   C     0.11993   0.95834   0.55250   0.01267  Uiso   1.00
C280   C     0.48888   0.17924   0.56150   0.01267  Uiso   1.00
C281   C     0.49086   0.13868   0.59660   0.01267  Uiso   1.00
C282   C     0.42745   0.13870   0.62410   0.01267  Uiso   1.00
C283   C     0.42285   0.10270   0.65940   0.01267  Uiso   1.00
C284   C     0.48595   0.06750   0.66450   0.01267  Uiso   1.00
C285   C     0.55216   0.06668   0.63860   0.01267  Uiso   1.00
C286   C     0.55168   0.10204   0.60330   0.01267  Uiso   1.00
C287   C     0.54271   0.99878   0.71320   0.01267  Uiso   1.00
C288   C     0.48568   0.93324   0.73150   0.01267  Uiso   1.00
C289   C     0.53063   0.87414   0.66870   0.01267  Uiso   1.00
C290   C     0.46470   0.87780   0.66480   0.01267  Uiso   1.00
C291   C     0.59390   0.84340   0.63910   0.01267  Uiso   1.00
C292   C     0.49151   0.97758   0.99690   0.01267  Uiso   1.00
C293   C     0.51854   0.93312   0.02220   0.01267  Uiso   1.00
C294   C     0.71109   0.30282   0.93260   0.01267  Uiso   1.00
C295   C     0.11957   0.65586   0.00970   0.01267  Uiso   1.00
C296   C     0.05078   0.73364   0.00670   0.01267  Uiso   1.00
C297   C     0.99957   0.61126   0.97860   0.01267  Uiso   1.00
C298   C     0.98480   0.56820   0.97500   0.01267  Uiso   1.00
C299   C     0.01439   0.70382   0.00260   0.01267  Uiso   1.00
C300   C     0.04751   0.52778   0.02920   0.01267  Uiso   1.00
C301   C     0.00626   0.52688   0.00050   0.01267  Uiso   1.00
C302   C     0.04126   0.60968   0.00420   0.01267  Uiso   1.00
C303   C     0.06461   0.56978   0.03130   0.01267  Uiso   1.00
C304   C     0.96243   0.99614   0.28770   0.01267  Uiso   1.00
C305   C     0.01788   0.93224   0.34010   0.01267  Uiso   1.00
C306   C     0.95121   0.93158   0.36330   0.01267  Uiso   1.00
C307   C     0.95223   0.89774   0.40000   0.01267  Uiso   1.00
C308   C     0.01326   0.86568   0.41040   0.01267  Uiso   1.00
C309   C     0.07791   0.86698   0.38580   0.01267  Uiso   1.00
C310   C     0.08110   0.90120   0.35060   0.01267  Uiso   1.00
C311   C     0.01238   0.82504   0.44640   0.01267  Uiso   1.00
C312   C     0.91816   0.06188   0.23430   0.01267  Uiso   1.00
C313   C     0.89803   0.12054   0.17140   0.01267  Uiso   1.00
C314   C     0.83282   0.11916   0.17400   0.01267  Uiso   1.00
C315   C     0.79610   0.14420   0.14180   0.01267  Uiso   1.00
C316   C     0.82485   0.17030   0.10640   0.01267  Uiso   1.00
C317   C     0.89018   0.17224   0.10470   0.01267  Uiso   1.00
C318   C     0.92669   0.14922   0.13750   0.01267  Uiso   1.00
C319   C     0.78861   0.19618   0.07030   0.01267  Uiso   1.00
C320   C     0.98971   0.63518   0.58970   0.01267  Uiso   1.00
C321   C     0.04953   0.60014   0.60090   0.01267  Uiso   1.00
C322   C     0.04790   0.56580   0.63490   0.01267  Uiso   1.00
C323   C     0.98364   0.56412   0.65920   0.01267  Uiso   1.00
C324   C     0.92008   0.59764   0.64750   0.01267  Uiso   1.00
C325   C     0.92370   0.63200   0.61220   0.01267  Uiso   1.00
C326   C     0.03146   0.50068   0.71112   0.01267  Uiso   1.00
C327   C     0.00595   0.46970   0.74991   0.01267  Uiso   1.00
C328   C     0.07044   0.43592   0.76850   0.01267  Uiso   1.00
C329   C     0.94872   0.50396   0.78770   0.01267  Uiso   1.00
C330   C     0.97439   0.43582   0.73390   0.01267  Uiso   1.00
C331   C     0.93760   0.56920   0.83640   0.01267  Uiso   1.00
C332   C     0.87654   0.56872   0.86510   0.01267  Uiso   1.00
C333   C     0.84096   0.60308   0.89960   0.01267  Uiso   1.00
C334   C     0.86742   0.63996   0.90640   0.01267  Uiso   1.00
C335   C     0.93126   0.63948   0.87870   0.01267  Uiso   1.00
C336   C     0.96635   0.60570   0.84390   0.01267  Uiso   1.00
C337   C     0.82589   0.67862   0.94380   0.01267  Uiso   1.00
C338   C     0.99405   0.67470   0.55380   0.01267  Uiso   1.00
C339   C     0.08715   0.37770   0.82940   0.01267  Uiso   1.00
C340   C     0.05814   0.34912   0.86010   0.01267  Uiso   1.00
C341   C     0.15053   0.37834   0.83220   0.01267  Uiso   1.00
C342   C     0.01325   0.37730   0.67360   0.01267  Uiso   1.00
C343   C     0.94741   0.37838   0.67320   0.01267  Uiso   1.00
C344   C     0.93869   0.35462   0.63910   0.01267  Uiso   1.00
C345   C     0.99470   0.32940   0.60530   0.01267  Uiso   1.00
C346   C     0.06429   0.32522   0.60660   0.01267  Uiso   1.00
C347   C     0.06968   0.35144   0.64160   0.01267  Uiso   1.00
C348   C     0.77497   0.84446   0.51080   0.01267  Uiso   1.00
C349   C     0.78820   0.76620   0.50800   0.01267  Uiso   1.00
C350   C     0.72037   0.79486   0.50400   0.01267  Uiso   1.00
C351   C     0.65101   0.88978   0.50400   0.01267  Uiso   1.00
C352   C     0.63394   0.92992   0.53220   0.01267  Uiso   1.00
C353   C     0.57355   0.97430   0.53000   0.01267  Uiso   1.00
C354   C     0.60759   0.88862   0.47970   0.01267  Uiso   1.00
C355   C     0.18727   0.29846   0.93480   0.01267  Uiso   1.00
C356   C     0.15301   0.32578   0.89770   0.01267  Uiso   1.00
C357   C     0.18166   0.35288   0.86610   0.01267  Uiso   1.00
C358   C     0.09143   0.32134   0.89370   0.01267  Uiso   1.00
C359   C     0.63582   0.66176   0.08295   0.01267  Uiso   1.00
C360   C     0.61496   0.65648   0.01840   0.01267  Uiso   1.00
C361   C     0.60803   0.62434   0.08688   0.01267  Uiso   1.00
C362   C     0.56464   0.58832   0.03300   0.01267  Uiso   1.00
C363   C     0.52936   0.59988  -0.00000   0.01267  Uiso   1.00
C364   C     0.50354   0.56692   0.98630   0.01267  Uiso   1.00
C365   C     0.51233   0.52014   0.00590   0.01267  Uiso   1.00
C366   C     0.54869   0.50922   0.04090   0.01267  Uiso   1.00
C367   C     0.57576   0.54188   0.05430   0.01267  Uiso   1.00
C368   C     0.68374   0.79632   0.93940   0.01267  Uiso   1.00
C369   C     0.65206   0.82328   0.90150   0.01267  Uiso   1.00
C370   C     0.68497   0.85266   0.87120   0.01267  Uiso   1.00
C371   C     0.59210   0.81880   0.89640   0.01267  Uiso   1.00
C372   C     0.88405   0.84210   0.98570   0.01267  Uiso   1.00
C373   C     0.86410   0.83780   0.92160   0.01267  Uiso   1.00
C374   C     0.89065   0.87430   0.91670   0.01267  Uiso   1.00
C375   C     0.93606   0.91108   0.96960   0.01267  Uiso   1.00
C376   C     0.96727   0.89926   0.00460   0.01267  Uiso   1.00
C377   C     0.99563   0.93494   0.01510   0.01267  Uiso   1.00
C378   C     0.98683   0.98154   0.99320   0.01267  Uiso   1.00
C379   C     0.95047   0.99206   0.95970   0.01267  Uiso   1.00
C380   C     0.92173   0.95834   0.94750   0.01267  Uiso   1.00
C381   C     0.33188   0.17924   0.93850   0.01267  Uiso   1.00
C382   C     0.37046   0.13868   0.90340   0.01267  Uiso   1.00
C383   C     0.43385   0.13870   0.87590   0.01267  Uiso   1.00
C384   C     0.47445   0.10270   0.84060   0.01267  Uiso   1.00
C385   C     0.44655   0.06750   0.83550   0.01267  Uiso   1.00
C386   C     0.38116   0.06668   0.86140   0.01267  Uiso   1.00
C387   C     0.34628   0.10204   0.89670   0.01267  Uiso   1.00
C388   C     0.45851   0.99878   0.78680   0.01267  Uiso   1.00
C389   C     0.58108   0.93324   0.76850   0.01267  Uiso   1.00
C390   C     0.59523   0.87414   0.83130   0.01267  Uiso   1.00
C391   C     0.65750   0.87780   0.83520   0.01267  Uiso   1.00
C392   C     0.56270   0.84340   0.86090   0.01267  Uiso   1.00
C393   C     0.53091   0.97758   0.50310   0.01267  Uiso   1.00
C394   C     0.54834   0.93312   0.47780   0.01267  Uiso   1.00
C395   C     0.98609   0.30282   0.56740   0.01267  Uiso   1.00
C396   C     0.22457   0.65586   0.49030   0.01267  Uiso   1.00
C397   C     0.21558   0.73364   0.49330   0.01267  Uiso   1.00
C398   C     0.38917   0.61126   0.52140   0.01267  Uiso   1.00
C399   C     0.44700   0.56820   0.52500   0.01267  Uiso   1.00
C400   C     0.28179   0.70382   0.49740   0.01267  Uiso   1.00
C401   C     0.42471   0.52778   0.47080   0.01267  Uiso   1.00
C402   C     0.46686   0.52688   0.49950   0.01267  Uiso   1.00
C403   C     0.34906   0.60968   0.49580   0.01267  Uiso   1.00
C404   C     0.36561   0.56978   0.46870   0.01267  Uiso   1.00
C405   C     0.01488   0.97024   0.75000   0.01267  Uiso   1.00
C406   C     0.98512   0.02976   0.25000   0.01267  Uiso   1.00
C407   C     0.48247   0.03506   0.25000   0.01267  Uiso   1.00
C408   C     0.51753   0.96494   0.75000   0.01267  Uiso   1.00
N1     N     0.61862   0.20256   0.01183   0.01267  Uiso   1.00
N2     N     0.55795   0.15510   0.00620   0.01267  Uiso   1.00
N3     N     0.32084   0.31732   0.54065   0.01267  Uiso   1.00
N4     N     0.21509   0.37662   0.54599   0.01267  Uiso   1.00
N5     N     0.67596   0.18268   0.46455   0.01267  Uiso   1.00
N6     N     0.78178   0.12324   0.45839   0.01267  Uiso   1.00
N7     N     0.88265   0.29650   0.98954   0.01267  Uiso   1.00
N8     N     0.94170   0.34460   0.99422   0.01267  Uiso   1.00
N9     N     0.17882   0.20256   0.48817   0.01267  Uiso   1.00
N10    N     0.28695   0.15510   0.49380   0.01267  Uiso   1.00
N11    N     0.36184   0.31732   0.95935   0.01267  Uiso   1.00
N12    N     0.40829   0.37662   0.95401   0.01267  Uiso   1.00
N13    N     0.14136   0.18268   0.03545   0.01267  Uiso   1.00
N14    N     0.09498   0.12324   0.04161   0.01267  Uiso   1.00
N15    N     0.82085   0.29650   0.51046   0.01267  Uiso   1.00
N16    N     0.71370   0.34460   0.50578   0.01267  Uiso   1.00
N17    N     0.38138   0.79744   0.98817   0.01267  Uiso   1.00
N18    N     0.44205   0.84490   0.99380   0.01267  Uiso   1.00
N19    N     0.67916   0.68268   0.45935   0.01267  Uiso   1.00
N20    N     0.78491   0.62338   0.45401   0.01267  Uiso   1.00
N21    N     0.32404   0.81732   0.53545   0.01267  Uiso   1.00
N22    N     0.21822   0.87676   0.54161   0.01267  Uiso   1.00
N23    N     0.11735   0.70350   0.01046   0.01267  Uiso   1.00
N24    N     0.05830   0.65540   0.00578   0.01267  Uiso   1.00
N25    N     0.82118   0.79744   0.51183   0.01267  Uiso   1.00
N26    N     0.71305   0.84490   0.50620   0.01267  Uiso   1.00
N27    N     0.63816   0.68268   0.04065   0.01267  Uiso   1.00
N28    N     0.59171   0.62338   0.04599   0.01267  Uiso   1.00
N29    N     0.85864   0.81732   0.96455   0.01267  Uiso   1.00
N30    N     0.90502   0.87676   0.95839   0.01267  Uiso   1.00
N31    N     0.17915   0.70350   0.48954   0.01267  Uiso   1.00
N32    N     0.28630   0.65540   0.49422   0.01267  Uiso   1.00
O1     O     0.45003   0.59814   0.29970   0.01267  Uiso   1.00
O2     O     0.43170   0.60000   0.20364   0.01267  Uiso   1.00
O3     O     0.51610   0.46240   0.30065   0.01267  Uiso   1.00
O4     O     0.50330   0.46720   0.19566   0.01267  Uiso   1.00
O5     O     0.72590   0.32720   0.03215   0.01267  Uiso   1.00
O6     O     0.64310   0.29100   0.05056   0.01267  Uiso   1.00
O7     O     0.56589   0.28742   0.44694   0.01267  Uiso   1.00
O8     O     0.44769   0.32382   0.46806   0.01267  Uiso   1.00
O9     O     0.77835   0.17270   0.96964   0.01267  Uiso   1.00
O10    O     0.85970   0.20860   0.95070   0.01267  Uiso   1.00
O11    O     0.99013   0.03574   0.80289   0.01267  Uiso   1.00
O12    O     0.03582   0.90276   0.70088   0.01267  Uiso   1.00
O13    O     0.23626   0.68788   0.06448   0.01267  Uiso   1.00
O14    O     0.31676   0.72648   0.04201   0.01267  Uiso   1.00
O15    O     0.92403   0.81194   0.56674   0.01267  Uiso   1.00
O16    O     0.04119   0.77462   0.54470   0.01267  Uiso   1.00
O17    O     0.54485   0.69550   0.43867   0.01267  Uiso   1.00
O18    O     0.42656   0.73088   0.45983   0.01267  Uiso   1.00
O19    O     0.42274   0.23252   0.46521   0.01267  Uiso   1.00
O20    O     0.54218   0.19624   0.44414   0.01267  Uiso   1.00
O21    O     0.45035   0.82390   0.46219   0.01267  Uiso   1.00
O22    O     0.56798   0.78764   0.44293   0.01267  Uiso   1.00
O23    O     0.51936   0.96788   0.30096   0.01267  Uiso   1.00
O24    O     0.45545   0.10410   0.29844   0.01267  Uiso   1.00
O25    O     0.95183   0.59814   0.20030   0.01267  Uiso   1.00
O26    O     0.96830   0.60000   0.29636   0.01267  Uiso   1.00
O27    O     0.02150   0.46240   0.19935   0.01267  Uiso   1.00
O28    O     0.02950   0.46720   0.30434   0.01267  Uiso   1.00
O29    O     0.94690   0.32720   0.46785   0.01267  Uiso   1.00
O30    O     0.06590   0.29100   0.44944   0.01267  Uiso   1.00
O31    O     0.14669   0.28742   0.05306   0.01267  Uiso   1.00
O32    O     0.22849   0.32382   0.03194   0.01267  Uiso   1.00
O33    O     0.04895   0.17270   0.53036   0.01267  Uiso   1.00
O34    O     0.93170   0.20860   0.54930   0.01267  Uiso   1.00
O35    O     0.97413   0.03574   0.69711   0.01267  Uiso   1.00
O36    O     0.06142   0.90276   0.79912   0.01267  Uiso   1.00
O37    O     0.07586   0.68788   0.43552   0.01267  Uiso   1.00
O38    O     0.95676   0.72648   0.45799   0.01267  Uiso   1.00
O39    O     0.26403   0.81194   0.93326   0.01267  Uiso   1.00
O40    O     0.18419   0.77462   0.95530   0.01267  Uiso   1.00
O41    O     0.75965   0.69550   0.06133   0.01267  Uiso   1.00
O42    O     0.84256   0.73088   0.04017   0.01267  Uiso   1.00
O43    O     0.34474   0.23252   0.03479   0.01267  Uiso   1.00
O44    O     0.26158   0.19624   0.05586   0.01267  Uiso   1.00
O45    O     0.72575   0.82390   0.03781   0.01267  Uiso   1.00
O46    O     0.64438   0.78764   0.05707   0.01267  Uiso   1.00
O47    O     0.51276   0.96788   0.19904   0.01267  Uiso   1.00
O48    O     0.44045   0.10410   0.20156   0.01267  Uiso   1.00
O49    O     0.54997   0.40186   0.70030   0.01267  Uiso   1.00
O50    O     0.56830   0.40000   0.79636   0.01267  Uiso   1.00
O51    O     0.48390   0.53760   0.69935   0.01267  Uiso   1.00
O52    O     0.49670   0.53280   0.80434   0.01267  Uiso   1.00
O53    O     0.27410   0.67280   0.96785   0.01267  Uiso   1.00
O54    O     0.35690   0.70900   0.94944   0.01267  Uiso   1.00
O55    O     0.43411   0.71258   0.55306   0.01267  Uiso   1.00
O56    O     0.55231   0.67618   0.53194   0.01267  Uiso   1.00
O57    O     0.22165   0.82730   0.03036   0.01267  Uiso   1.00
O58    O     0.14030   0.79140   0.04930   0.01267  Uiso   1.00
O59    O     0.00987   0.96426   0.19711   0.01267  Uiso   1.00
O60    O     0.96418   0.09724   0.29912   0.01267  Uiso   1.00
O61    O     0.76374   0.31212   0.93552   0.01267  Uiso   1.00
O62    O     0.68324   0.27352   0.95799   0.01267  Uiso   1.00
O63    O     0.07597   0.18806   0.43326   0.01267  Uiso   1.00
O64    O     0.95881   0.22538   0.45530   0.01267  Uiso   1.00
O65    O     0.45515   0.30450   0.56133   0.01267  Uiso   1.00
O66    O     0.57344   0.26912   0.54017   0.01267  Uiso   1.00
O67    O     0.57726   0.76748   0.53479   0.01267  Uiso   1.00
O68    O     0.45782   0.80376   0.55586   0.01267  Uiso   1.00
O69    O     0.54965   0.17610   0.53781   0.01267  Uiso   1.00
O70    O     0.43202   0.21236   0.55707   0.01267  Uiso   1.00
O71    O     0.48064   0.03212   0.69904   0.01267  Uiso   1.00
O72    O     0.54455   0.89590   0.70156   0.01267  Uiso   1.00
O73    O     0.04817   0.40186   0.79970   0.01267  Uiso   1.00
O74    O     0.03170   0.40000   0.70364   0.01267  Uiso   1.00
O75    O     0.97850   0.53760   0.80065   0.01267  Uiso   1.00
O76    O     0.97050   0.53280   0.69566   0.01267  Uiso   1.00
O77    O     0.05310   0.67280   0.53215   0.01267  Uiso   1.00
O78    O     0.93410   0.70900   0.55056   0.01267  Uiso   1.00
O79    O     0.85331   0.71258   0.94694   0.01267  Uiso   1.00
O80    O     0.77151   0.67618   0.96806   0.01267  Uiso   1.00
O81    O     0.95105   0.82730   0.46964   0.01267  Uiso   1.00
O82    O     0.06830   0.79140   0.45070   0.01267  Uiso   1.00
O83    O     0.02587   0.96426   0.30289   0.01267  Uiso   1.00
O84    O     0.93858   0.09724   0.20088   0.01267  Uiso   1.00
O85    O     0.92414   0.31212   0.56448   0.01267  Uiso   1.00
O86    O     0.04324   0.27352   0.54201   0.01267  Uiso   1.00
O87    O     0.73597   0.18806   0.06674   0.01267  Uiso   1.00
O88    O     0.81581   0.22538   0.04470   0.01267  Uiso   1.00
O89    O     0.24035   0.30450   0.93867   0.01267  Uiso   1.00
O90    O     0.15744   0.26912   0.95983   0.01267  Uiso   1.00
O91    O     0.65526   0.76748   0.96521   0.01267  Uiso   1.00
O92    O     0.73842   0.80376   0.94414   0.01267  Uiso   1.00
O93    O     0.27425   0.17610   0.96219   0.01267  Uiso   1.00
O94    O     0.35562   0.21236   0.94293   0.01267  Uiso   1.00
O95    O     0.48724   0.03212   0.80096   0.01267  Uiso   1.00
O96    O     0.55955   0.89590   0.79844   0.01267  Uiso   1.00
