data_RUTPAY01_clean
_audit_creation_date              2014-07-02
_audit_creation_method            'Materials Studio'
_symmetry_space_group_name_H-M    'P1'
_symmetry_Int_Tables_number       1
_symmetry_cell_setting            triclinic
loop_
_symmetry_equiv_pos_as_xyz
  x,y,z
_cell_length_a                    29.7065
_cell_length_b                    29.7065
_cell_length_c                    29.7065
_cell_angle_alpha                 63.0934
_cell_angle_beta                  63.0934
_cell_angle_gamma                 63.0934
loop_
_atom_site_label
_atom_site_type_symbol
_atom_site_fract_x
_atom_site_fract_y
_atom_site_fract_z
_atom_site_U_iso_or_equiv
_atom_site_adp_type
_atom_site_occupancy
Zn1    Zn    0.54907   0.65482   0.55641   0.01267  Uiso   1.00
Zn2    Zn    0.55641   0.54907   0.65482   0.01267  Uiso   1.00
Zn3    Zn    0.65482   0.55641   0.54907   0.01267  Uiso   1.00
Zn4    Zn    0.15482   0.04907   0.05641   0.01267  Uiso   1.00
Zn5    Zn    0.04907   0.05641   0.15482   0.01267  Uiso   1.00
Zn6    Zn    0.05641   0.15482   0.04907   0.01267  Uiso   1.00
Zn7    Zn    0.55042   0.55042   0.55042   0.01267  Uiso   1.00
Zn8    Zn    0.05042   0.05042   0.05042   0.01267  Uiso   1.00
H1     H     0.46060   0.62470   0.44970   0.01267  Uiso   1.00
H2     H     0.39840   0.66980   0.40530   0.01267  Uiso   1.00
H3     H     0.38380   0.80630   0.41660   0.01267  Uiso   1.00
H4     H     0.44410   0.75660   0.46450   0.01267  Uiso   1.00
H5     H     0.34740   0.86960   0.26130   0.01267  Uiso   1.00
H6     H     0.39300   0.82040   0.32220   0.01267  Uiso   1.00
H7     H     0.29380   0.71610   0.49120   0.01267  Uiso   1.00
H8     H     0.25110   0.69110   0.50460   0.01267  Uiso   1.00
H9     H     0.30980   0.66910   0.47060   0.01267  Uiso   1.00
H10    H     0.15930   0.83750   0.34980   0.01267  Uiso   1.00
H11    H     0.19590   0.79750   0.31720   0.01267  Uiso   1.00
H12    H     0.15790   0.77890   0.37470   0.01267  Uiso   1.00
H13    H     0.24970   0.92820   0.14650   0.01267  Uiso   1.00
H14    H     0.18700   0.91130   0.32210   0.01267  Uiso   1.00
H15    H     0.13020   0.96920   0.27000   0.01267  Uiso   1.00
H16    H     0.30160   0.86380   0.20040   0.01267  Uiso   1.00
H17    H     0.08300   0.69600   0.45300   0.01267  Uiso   1.00
H18    H     0.01120   0.66400   0.50640   0.01267  Uiso   1.00
H19    H     0.99530   0.62740   0.59760   0.01267  Uiso   1.00
H20    H     0.05120   0.62310   0.63540   0.01267  Uiso   1.00
H21    H     0.12300   0.65510   0.58200   0.01267  Uiso   1.00
H22    H     0.44970   0.46060   0.62470   0.01267  Uiso   1.00
H23    H     0.40530   0.39840   0.66980   0.01267  Uiso   1.00
H24    H     0.41660   0.38380   0.80630   0.01267  Uiso   1.00
H25    H     0.46450   0.44410   0.75660   0.01267  Uiso   1.00
H26    H     0.26130   0.34740   0.86960   0.01267  Uiso   1.00
H27    H     0.32220   0.39300   0.82040   0.01267  Uiso   1.00
H28    H     0.49120   0.29380   0.71610   0.01267  Uiso   1.00
H29    H     0.50460   0.25110   0.69110   0.01267  Uiso   1.00
H30    H     0.47060   0.30980   0.66910   0.01267  Uiso   1.00
H31    H     0.34980   0.15930   0.83750   0.01267  Uiso   1.00
H32    H     0.31720   0.19590   0.79750   0.01267  Uiso   1.00
H33    H     0.37470   0.15790   0.77890   0.01267  Uiso   1.00
H34    H     0.14650   0.24970   0.92820   0.01267  Uiso   1.00
H35    H     0.32210   0.18700   0.91130   0.01267  Uiso   1.00
H36    H     0.27000   0.13020   0.96920   0.01267  Uiso   1.00
H37    H     0.20040   0.30160   0.86380   0.01267  Uiso   1.00
H38    H     0.45300   0.08300   0.69600   0.01267  Uiso   1.00
H39    H     0.50640   0.01120   0.66400   0.01267  Uiso   1.00
H40    H     0.59760   0.99530   0.62740   0.01267  Uiso   1.00
H41    H     0.63540   0.05120   0.62310   0.01267  Uiso   1.00
H42    H     0.58200   0.12300   0.65510   0.01267  Uiso   1.00
H43    H     0.62470   0.44970   0.46060   0.01267  Uiso   1.00
H44    H     0.66980   0.40530   0.39840   0.01267  Uiso   1.00
H45    H     0.80630   0.41660   0.38380   0.01267  Uiso   1.00
H46    H     0.75660   0.46450   0.44410   0.01267  Uiso   1.00
H47    H     0.86960   0.26130   0.34740   0.01267  Uiso   1.00
H48    H     0.82040   0.32220   0.39300   0.01267  Uiso   1.00
H49    H     0.71610   0.49120   0.29380   0.01267  Uiso   1.00
H50    H     0.69110   0.50460   0.25110   0.01267  Uiso   1.00
H51    H     0.66910   0.47060   0.30980   0.01267  Uiso   1.00
H52    H     0.83750   0.34980   0.15930   0.01267  Uiso   1.00
H53    H     0.79750   0.31720   0.19590   0.01267  Uiso   1.00
H54    H     0.77890   0.37470   0.15790   0.01267  Uiso   1.00
H55    H     0.92820   0.14650   0.24970   0.01267  Uiso   1.00
H56    H     0.91130   0.32210   0.18700   0.01267  Uiso   1.00
H57    H     0.96920   0.27000   0.13020   0.01267  Uiso   1.00
H58    H     0.86380   0.20040   0.30160   0.01267  Uiso   1.00
H59    H     0.69600   0.45300   0.08300   0.01267  Uiso   1.00
H60    H     0.66400   0.50640   0.01120   0.01267  Uiso   1.00
H61    H     0.62740   0.59760   0.99530   0.01267  Uiso   1.00
H62    H     0.62310   0.63540   0.05120   0.01267  Uiso   1.00
H63    H     0.65510   0.58200   0.12300   0.01267  Uiso   1.00
H64    H     0.12470   0.96060   0.94970   0.01267  Uiso   1.00
H65    H     0.16980   0.89840   0.90530   0.01267  Uiso   1.00
H66    H     0.30630   0.88380   0.91660   0.01267  Uiso   1.00
H67    H     0.25660   0.94410   0.96450   0.01267  Uiso   1.00
H68    H     0.36960   0.84740   0.76130   0.01267  Uiso   1.00
H69    H     0.32040   0.89300   0.82220   0.01267  Uiso   1.00
H70    H     0.21610   0.79380   0.99120   0.01267  Uiso   1.00
H71    H     0.19110   0.75110   0.00460   0.01267  Uiso   1.00
H72    H     0.16910   0.80980   0.97060   0.01267  Uiso   1.00
H73    H     0.33750   0.65930   0.84980   0.01267  Uiso   1.00
H74    H     0.29750   0.69590   0.81720   0.01267  Uiso   1.00
H75    H     0.27890   0.65790   0.87470   0.01267  Uiso   1.00
H76    H     0.42820   0.74970   0.64650   0.01267  Uiso   1.00
H77    H     0.41130   0.68700   0.82210   0.01267  Uiso   1.00
H78    H     0.46920   0.63020   0.77000   0.01267  Uiso   1.00
H79    H     0.36380   0.80160   0.70040   0.01267  Uiso   1.00
H80    H     0.19600   0.58300   0.95300   0.01267  Uiso   1.00
H81    H     0.16400   0.51120   0.00640   0.01267  Uiso   1.00
H82    H     0.12740   0.49530   0.09760   0.01267  Uiso   1.00
H83    H     0.12310   0.55120   0.13540   0.01267  Uiso   1.00
H84    H     0.15510   0.62300   0.08200   0.01267  Uiso   1.00
H85    H     0.96060   0.94970   0.12470   0.01267  Uiso   1.00
H86    H     0.89840   0.90530   0.16980   0.01267  Uiso   1.00
H87    H     0.88380   0.91660   0.30630   0.01267  Uiso   1.00
H88    H     0.94410   0.96450   0.25660   0.01267  Uiso   1.00
H89    H     0.84740   0.76130   0.36960   0.01267  Uiso   1.00
H90    H     0.89300   0.82220   0.32040   0.01267  Uiso   1.00
H91    H     0.79380   0.99120   0.21610   0.01267  Uiso   1.00
H92    H     0.75110   0.00460   0.19110   0.01267  Uiso   1.00
H93    H     0.80980   0.97060   0.16910   0.01267  Uiso   1.00
H94    H     0.65930   0.84980   0.33750   0.01267  Uiso   1.00
H95    H     0.69590   0.81720   0.29750   0.01267  Uiso   1.00
H96    H     0.65790   0.87470   0.27890   0.01267  Uiso   1.00
H97    H     0.74970   0.64650   0.42820   0.01267  Uiso   1.00
H98    H     0.68700   0.82210   0.41130   0.01267  Uiso   1.00
H99    H     0.63020   0.77000   0.46920   0.01267  Uiso   1.00
H100   H     0.80160   0.70040   0.36380   0.01267  Uiso   1.00
H101   H     0.58300   0.95300   0.19600   0.01267  Uiso   1.00
H102   H     0.51120   0.00640   0.16400   0.01267  Uiso   1.00
H103   H     0.49530   0.09760   0.12740   0.01267  Uiso   1.00
H104   H     0.55120   0.13540   0.12310   0.01267  Uiso   1.00
H105   H     0.62300   0.08200   0.15510   0.01267  Uiso   1.00
H106   H     0.94970   0.12470   0.96060   0.01267  Uiso   1.00
H107   H     0.90530   0.16980   0.89840   0.01267  Uiso   1.00
H108   H     0.91660   0.30630   0.88380   0.01267  Uiso   1.00
H109   H     0.96450   0.25660   0.94410   0.01267  Uiso   1.00
H110   H     0.76130   0.36960   0.84740   0.01267  Uiso   1.00
H111   H     0.82220   0.32040   0.89300   0.01267  Uiso   1.00
H112   H     0.99120   0.21610   0.79380   0.01267  Uiso   1.00
H113   H     0.00460   0.19110   0.75110   0.01267  Uiso   1.00
H114   H     0.97060   0.16910   0.80980   0.01267  Uiso   1.00
H115   H     0.84980   0.33750   0.65930   0.01267  Uiso   1.00
H116   H     0.81720   0.29750   0.69590   0.01267  Uiso   1.00
H117   H     0.87470   0.27890   0.65790   0.01267  Uiso   1.00
H118   H     0.64650   0.42820   0.74970   0.01267  Uiso   1.00
H119   H     0.82210   0.41130   0.68700   0.01267  Uiso   1.00
H120   H     0.77000   0.46920   0.63020   0.01267  Uiso   1.00
H121   H     0.70040   0.36380   0.80160   0.01267  Uiso   1.00
H122   H     0.95300   0.19600   0.58300   0.01267  Uiso   1.00
H123   H     0.00640   0.16400   0.51120   0.01267  Uiso   1.00
H124   H     0.09760   0.12740   0.49530   0.01267  Uiso   1.00
H125   H     0.13540   0.12310   0.55120   0.01267  Uiso   1.00
H126   H     0.08200   0.15510   0.62300   0.01267  Uiso   1.00
Pd1    Pd    0.16854   0.71220   0.46676   0.01267  Uiso   1.00
Pd2    Pd    0.46676   0.16854   0.71220   0.01267  Uiso   1.00
Pd3    Pd    0.71220   0.46676   0.16854   0.01267  Uiso   1.00
Pd4    Pd    0.21220   0.66854   0.96676   0.01267  Uiso   1.00
Pd5    Pd    0.66854   0.96676   0.21220   0.01267  Uiso   1.00
Pd6    Pd    0.96676   0.21220   0.66854   0.01267  Uiso   1.00
C1     C     0.49500   0.65290   0.49690   0.01267  Uiso   1.00
C2     C     0.44430   0.66100   0.44410   0.01267  Uiso   1.00
C3     C     0.40790   0.68770   0.41690   0.01267  Uiso   1.00
C4     C     0.38560   0.74260   0.40740   0.01267  Uiso   1.00
C5     C     0.39830   0.76960   0.42380   0.01267  Uiso   1.00
C6     C     0.43510   0.73900   0.45240   0.01267  Uiso   1.00
C7     C     0.45800   0.68580   0.46350   0.01267  Uiso   1.00
C8     C     0.34760   0.77510   0.37540   0.01267  Uiso   1.00
C9     C     0.33290   0.84680   0.29350   0.01267  Uiso   1.00
C10    C     0.36190   0.81450   0.32980   0.01267  Uiso   1.00
C11    C     0.26710   0.80330   0.34970   0.01267  Uiso   1.00
C12    C     0.15670   0.99360   0.15970   0.01267  Uiso   1.00
C13    C     0.28320   0.84490   0.30490   0.01267  Uiso   1.00
C14    C     0.22270   0.74650   0.42330   0.01267  Uiso   1.00
C15    C     0.29800   0.77180   0.38690   0.01267  Uiso   1.00
C16    C     0.28210   0.70040   0.47810   0.01267  Uiso   1.00
C17    C     0.18020   0.80120   0.35200   0.01267  Uiso   1.00
C18    C     0.24930   0.88240   0.26650   0.01267  Uiso   1.00
C19    C     0.23640   0.92290   0.18280   0.01267  Uiso   1.00
C20    C     0.19900   0.91360   0.28650   0.01267  Uiso   1.00
C21    C     0.16460   0.94930   0.25550   0.01267  Uiso   1.00
C22    C     0.18450   0.95260   0.20470   0.01267  Uiso   1.00
C23    C     0.26840   0.88570   0.21440   0.01267  Uiso   1.00
C24    C     0.07670   0.68140   0.48950   0.01267  Uiso   1.00
C25    C     0.03360   0.66220   0.52150   0.01267  Uiso   1.00
C26    C     0.02410   0.64040   0.57620   0.01267  Uiso   1.00
C27    C     0.05760   0.63770   0.59880   0.01267  Uiso   1.00
C28    C     0.10057   0.65697   0.56677   0.01267  Uiso   1.00
C29    C     0.49690   0.49500   0.65290   0.01267  Uiso   1.00
C30    C     0.44410   0.44430   0.66100   0.01267  Uiso   1.00
C31    C     0.41690   0.40790   0.68770   0.01267  Uiso   1.00
C32    C     0.40740   0.38560   0.74260   0.01267  Uiso   1.00
C33    C     0.42380   0.39830   0.76960   0.01267  Uiso   1.00
C34    C     0.45240   0.43510   0.73900   0.01267  Uiso   1.00
C35    C     0.46350   0.45800   0.68580   0.01267  Uiso   1.00
C36    C     0.37540   0.34760   0.77510   0.01267  Uiso   1.00
C37    C     0.29350   0.33290   0.84680   0.01267  Uiso   1.00
C38    C     0.32980   0.36190   0.81450   0.01267  Uiso   1.00
C39    C     0.34970   0.26710   0.80330   0.01267  Uiso   1.00
C40    C     0.15970   0.15670   0.99360   0.01267  Uiso   1.00
C41    C     0.30490   0.28320   0.84490   0.01267  Uiso   1.00
C42    C     0.42330   0.22270   0.74650   0.01267  Uiso   1.00
C43    C     0.38690   0.29800   0.77180   0.01267  Uiso   1.00
C44    C     0.47810   0.28210   0.70040   0.01267  Uiso   1.00
C45    C     0.35200   0.18020   0.80120   0.01267  Uiso   1.00
C46    C     0.26650   0.24930   0.88240   0.01267  Uiso   1.00
C47    C     0.18280   0.23640   0.92290   0.01267  Uiso   1.00
C48    C     0.28650   0.19900   0.91360   0.01267  Uiso   1.00
C49    C     0.25550   0.16460   0.94930   0.01267  Uiso   1.00
C50    C     0.20470   0.18450   0.95260   0.01267  Uiso   1.00
C51    C     0.21440   0.26840   0.88570   0.01267  Uiso   1.00
C52    C     0.48950   0.07670   0.68140   0.01267  Uiso   1.00
C53    C     0.52150   0.03360   0.66220   0.01267  Uiso   1.00
C54    C     0.57620   0.02410   0.64040   0.01267  Uiso   1.00
C55    C     0.59880   0.05760   0.63770   0.01267  Uiso   1.00
C56    C     0.56677   0.10057   0.65697   0.01267  Uiso   1.00
C57    C     0.65290   0.49690   0.49500   0.01267  Uiso   1.00
C58    C     0.66100   0.44410   0.44430   0.01267  Uiso   1.00
C59    C     0.68770   0.41690   0.40790   0.01267  Uiso   1.00
C60    C     0.74260   0.40740   0.38560   0.01267  Uiso   1.00
C61    C     0.76960   0.42380   0.39830   0.01267  Uiso   1.00
C62    C     0.73900   0.45240   0.43510   0.01267  Uiso   1.00
C63    C     0.68580   0.46350   0.45800   0.01267  Uiso   1.00
C64    C     0.77510   0.37540   0.34760   0.01267  Uiso   1.00
C65    C     0.84680   0.29350   0.33290   0.01267  Uiso   1.00
C66    C     0.81450   0.32980   0.36190   0.01267  Uiso   1.00
C67    C     0.80330   0.34970   0.26710   0.01267  Uiso   1.00
C68    C     0.99360   0.15970   0.15670   0.01267  Uiso   1.00
C69    C     0.84490   0.30490   0.28320   0.01267  Uiso   1.00
C70    C     0.74650   0.42330   0.22270   0.01267  Uiso   1.00
C71    C     0.77180   0.38690   0.29800   0.01267  Uiso   1.00
C72    C     0.70040   0.47810   0.28210   0.01267  Uiso   1.00
C73    C     0.80120   0.35200   0.18020   0.01267  Uiso   1.00
C74    C     0.88240   0.26650   0.24930   0.01267  Uiso   1.00
C75    C     0.92290   0.18280   0.23640   0.01267  Uiso   1.00
C76    C     0.91360   0.28650   0.19900   0.01267  Uiso   1.00
C77    C     0.94930   0.25550   0.16460   0.01267  Uiso   1.00
C78    C     0.95260   0.20470   0.18450   0.01267  Uiso   1.00
C79    C     0.88570   0.21440   0.26840   0.01267  Uiso   1.00
C80    C     0.68140   0.48950   0.07670   0.01267  Uiso   1.00
C81    C     0.66220   0.52150   0.03360   0.01267  Uiso   1.00
C82    C     0.64040   0.57620   0.02410   0.01267  Uiso   1.00
C83    C     0.63770   0.59880   0.05760   0.01267  Uiso   1.00
C84    C     0.65697   0.56677   0.10057   0.01267  Uiso   1.00
C85    C     0.15290   0.99500   0.99690   0.01267  Uiso   1.00
C86    C     0.16100   0.94430   0.94410   0.01267  Uiso   1.00
C87    C     0.18770   0.90790   0.91690   0.01267  Uiso   1.00
C88    C     0.24260   0.88560   0.90740   0.01267  Uiso   1.00
C89    C     0.26960   0.89830   0.92380   0.01267  Uiso   1.00
C90    C     0.23900   0.93510   0.95240   0.01267  Uiso   1.00
C91    C     0.18580   0.95800   0.96350   0.01267  Uiso   1.00
C92    C     0.27510   0.84760   0.87540   0.01267  Uiso   1.00
C93    C     0.34680   0.83290   0.79350   0.01267  Uiso   1.00
C94    C     0.31450   0.86190   0.82980   0.01267  Uiso   1.00
C95    C     0.30330   0.76710   0.84970   0.01267  Uiso   1.00
C96    C     0.49360   0.65670   0.65970   0.01267  Uiso   1.00
C97    C     0.34490   0.78320   0.80490   0.01267  Uiso   1.00
C98    C     0.24650   0.72270   0.92330   0.01267  Uiso   1.00
C99    C     0.27180   0.79800   0.88690   0.01267  Uiso   1.00
C100   C     0.20040   0.78210   0.97810   0.01267  Uiso   1.00
C101   C     0.30120   0.68020   0.85200   0.01267  Uiso   1.00
C102   C     0.38240   0.74930   0.76650   0.01267  Uiso   1.00
C103   C     0.42290   0.73640   0.68280   0.01267  Uiso   1.00
C104   C     0.41360   0.69900   0.78650   0.01267  Uiso   1.00
C105   C     0.44930   0.66460   0.75550   0.01267  Uiso   1.00
C106   C     0.45260   0.68450   0.70470   0.01267  Uiso   1.00
C107   C     0.38570   0.76840   0.71440   0.01267  Uiso   1.00
C108   C     0.18140   0.57670   0.98950   0.01267  Uiso   1.00
C109   C     0.16220   0.53360   0.02150   0.01267  Uiso   1.00
C110   C     0.14040   0.52410   0.07620   0.01267  Uiso   1.00
C111   C     0.13770   0.55760   0.09880   0.01267  Uiso   1.00
C112   C     0.15697   0.60057   0.06677   0.01267  Uiso   1.00
C113   C     0.99500   0.99690   0.15290   0.01267  Uiso   1.00
C114   C     0.94430   0.94410   0.16100   0.01267  Uiso   1.00
C115   C     0.90790   0.91690   0.18770   0.01267  Uiso   1.00
C116   C     0.88560   0.90740   0.24260   0.01267  Uiso   1.00
C117   C     0.89830   0.92380   0.26960   0.01267  Uiso   1.00
C118   C     0.93510   0.95240   0.23900   0.01267  Uiso   1.00
C119   C     0.95800   0.96350   0.18580   0.01267  Uiso   1.00
C120   C     0.84760   0.87540   0.27510   0.01267  Uiso   1.00
C121   C     0.83290   0.79350   0.34680   0.01267  Uiso   1.00
C122   C     0.86190   0.82980   0.31450   0.01267  Uiso   1.00
C123   C     0.76710   0.84970   0.30330   0.01267  Uiso   1.00
C124   C     0.65670   0.65970   0.49360   0.01267  Uiso   1.00
C125   C     0.78320   0.80490   0.34490   0.01267  Uiso   1.00
C126   C     0.72270   0.92330   0.24650   0.01267  Uiso   1.00
C127   C     0.79800   0.88690   0.27180   0.01267  Uiso   1.00
C128   C     0.78210   0.97810   0.20040   0.01267  Uiso   1.00
C129   C     0.68020   0.85200   0.30120   0.01267  Uiso   1.00
C130   C     0.74930   0.76650   0.38240   0.01267  Uiso   1.00
C131   C     0.73640   0.68280   0.42290   0.01267  Uiso   1.00
C132   C     0.69900   0.78650   0.41360   0.01267  Uiso   1.00
C133   C     0.66460   0.75550   0.44930   0.01267  Uiso   1.00
C134   C     0.68450   0.70470   0.45260   0.01267  Uiso   1.00
C135   C     0.76840   0.71440   0.38570   0.01267  Uiso   1.00
C136   C     0.57670   0.98950   0.18140   0.01267  Uiso   1.00
C137   C     0.53360   0.02150   0.16220   0.01267  Uiso   1.00
C138   C     0.52410   0.07620   0.14040   0.01267  Uiso   1.00
C139   C     0.55760   0.09880   0.13770   0.01267  Uiso   1.00
C140   C     0.60057   0.06677   0.15697   0.01267  Uiso   1.00
C141   C     0.99690   0.15290   0.99500   0.01267  Uiso   1.00
C142   C     0.94410   0.16100   0.94430   0.01267  Uiso   1.00
C143   C     0.91690   0.18770   0.90790   0.01267  Uiso   1.00
C144   C     0.90740   0.24260   0.88560   0.01267  Uiso   1.00
C145   C     0.92380   0.26960   0.89830   0.01267  Uiso   1.00
C146   C     0.95240   0.23900   0.93510   0.01267  Uiso   1.00
C147   C     0.96350   0.18580   0.95800   0.01267  Uiso   1.00
C148   C     0.87540   0.27510   0.84760   0.01267  Uiso   1.00
C149   C     0.79350   0.34680   0.83290   0.01267  Uiso   1.00
C150   C     0.82980   0.31450   0.86190   0.01267  Uiso   1.00
C151   C     0.84970   0.30330   0.76710   0.01267  Uiso   1.00
C152   C     0.65970   0.49360   0.65670   0.01267  Uiso   1.00
C153   C     0.80490   0.34490   0.78320   0.01267  Uiso   1.00
C154   C     0.92330   0.24650   0.72270   0.01267  Uiso   1.00
C155   C     0.88690   0.27180   0.79800   0.01267  Uiso   1.00
C156   C     0.97810   0.20040   0.78210   0.01267  Uiso   1.00
C157   C     0.85200   0.30120   0.68020   0.01267  Uiso   1.00
C158   C     0.76650   0.38240   0.74930   0.01267  Uiso   1.00
C159   C     0.68280   0.42290   0.73640   0.01267  Uiso   1.00
C160   C     0.78650   0.41360   0.69900   0.01267  Uiso   1.00
C161   C     0.75550   0.44930   0.66460   0.01267  Uiso   1.00
C162   C     0.70470   0.45260   0.68450   0.01267  Uiso   1.00
C163   C     0.71440   0.38570   0.76840   0.01267  Uiso   1.00
C164   C     0.98950   0.18140   0.57670   0.01267  Uiso   1.00
C165   C     0.02150   0.16220   0.53360   0.01267  Uiso   1.00
C166   C     0.07620   0.14040   0.52410   0.01267  Uiso   1.00
C167   C     0.09880   0.13770   0.55760   0.01267  Uiso   1.00
C168   C     0.06677   0.15697   0.60057   0.01267  Uiso   1.00
I1     I     0.22357   0.63905   0.42182   0.01267  Uiso   1.00
I2     I     0.12092   0.78792   0.50919   0.01267  Uiso   1.00
I3     I     0.42182   0.22357   0.63905   0.01267  Uiso   1.00
I4     I     0.50919   0.12092   0.78792   0.01267  Uiso   1.00
I5     I     0.63905   0.42182   0.22357   0.01267  Uiso   1.00
I6     I     0.78792   0.50919   0.12092   0.01267  Uiso   1.00
I7     I     0.13905   0.72357   0.92182   0.01267  Uiso   1.00
I8     I     0.28792   0.62092   0.00919   0.01267  Uiso   1.00
I9     I     0.72357   0.92182   0.13905   0.01267  Uiso   1.00
I10    I     0.62092   0.00919   0.28792   0.01267  Uiso   1.00
I11    I     0.92182   0.13905   0.72357   0.01267  Uiso   1.00
I12    I     0.00919   0.28792   0.62092   0.01267  Uiso   1.00
N1     N     0.22420   0.78480   0.37510   0.01267  Uiso   1.00
N2     N     0.26920   0.73860   0.42940   0.01267  Uiso   1.00
N3     N     0.11010   0.67880   0.51210   0.01267  Uiso   1.00
N4     N     0.37510   0.22420   0.78480   0.01267  Uiso   1.00
N5     N     0.42940   0.26920   0.73860   0.01267  Uiso   1.00
N6     N     0.51210   0.11010   0.67880   0.01267  Uiso   1.00
N7     N     0.78480   0.37510   0.22420   0.01267  Uiso   1.00
N8     N     0.73860   0.42940   0.26920   0.01267  Uiso   1.00
N9     N     0.67880   0.51210   0.11010   0.01267  Uiso   1.00
N10    N     0.28480   0.72420   0.87510   0.01267  Uiso   1.00
N11    N     0.23860   0.76920   0.92940   0.01267  Uiso   1.00
N12    N     0.17880   0.61010   0.01210   0.01267  Uiso   1.00
N13    N     0.72420   0.87510   0.28480   0.01267  Uiso   1.00
N14    N     0.76920   0.92940   0.23860   0.01267  Uiso   1.00
N15    N     0.61010   0.01210   0.17880   0.01267  Uiso   1.00
N16    N     0.87510   0.28480   0.72420   0.01267  Uiso   1.00
N17    N     0.92940   0.23860   0.76920   0.01267  Uiso   1.00
N18    N     0.01210   0.17880   0.61010   0.01267  Uiso   1.00
O1     O     0.51328   0.60448   0.49998   0.01267  Uiso   1.00
O2     O     0.50283   0.67793   0.51333   0.01267  Uiso   1.00
O3     O     0.17975   0.00005   0.11325   0.01267  Uiso   1.00
O4     O     0.10693   0.00673   0.18713   0.01267  Uiso   1.00
O5     O     0.49998   0.51328   0.60448   0.01267  Uiso   1.00
O6     O     0.51333   0.50283   0.67793   0.01267  Uiso   1.00
O7     O     0.11325   0.17975   0.00005   0.01267  Uiso   1.00
O8     O     0.18713   0.10693   0.00673   0.01267  Uiso   1.00
O9     O     0.60448   0.49998   0.51328   0.01267  Uiso   1.00
O10    O     0.67793   0.51333   0.50283   0.01267  Uiso   1.00
O11    O     0.00005   0.11325   0.17975   0.01267  Uiso   1.00
O12    O     0.00673   0.18713   0.10693   0.01267  Uiso   1.00
O13    O     0.10448   0.01328   0.99998   0.01267  Uiso   1.00
O14    O     0.17793   0.00283   0.01333   0.01267  Uiso   1.00
O15    O     0.50005   0.67975   0.61325   0.01267  Uiso   1.00
O16    O     0.50673   0.60693   0.68713   0.01267  Uiso   1.00
O17    O     0.01328   0.99998   0.10448   0.01267  Uiso   1.00
O18    O     0.00283   0.01333   0.17793   0.01267  Uiso   1.00
O19    O     0.67975   0.61325   0.50005   0.01267  Uiso   1.00
O20    O     0.60693   0.68713   0.50673   0.01267  Uiso   1.00
O21    O     0.99998   0.10448   0.01328   0.01267  Uiso   1.00
O22    O     0.01333   0.17793   0.00283   0.01267  Uiso   1.00
O23    O     0.61325   0.50005   0.67975   0.01267  Uiso   1.00
O24    O     0.68713   0.50673   0.60693   0.01267  Uiso   1.00
O25    O     0.57756   0.57756   0.57756   0.01267  Uiso   1.00
O26    O     0.07756   0.07756   0.07756   0.01267  Uiso   1.00
Zn9    Zn    0.84518   0.95093   0.94359   0.01267  Uiso   1.00
Zn10   Zn    0.95093   0.94359   0.84518   0.01267  Uiso   1.00
Zn11   Zn    0.94359   0.84518   0.95093   0.01267  Uiso   1.00
Zn12   Zn    0.45093   0.34518   0.44359   0.01267  Uiso   1.00
Zn13   Zn    0.44359   0.45093   0.34518   0.01267  Uiso   1.00
Zn14   Zn    0.34518   0.44359   0.45093   0.01267  Uiso   1.00
Zn15   Zn    0.94958   0.94958   0.94958   0.01267  Uiso   1.00
Zn16   Zn    0.44958   0.44958   0.44958   0.01267  Uiso   1.00
H127   H     0.87530   0.03940   0.05030   0.01267  Uiso   1.00
H128   H     0.83020   0.10160   0.09470   0.01267  Uiso   1.00
H129   H     0.69370   0.11620   0.08340   0.01267  Uiso   1.00
H130   H     0.74340   0.05590   0.03550   0.01267  Uiso   1.00
H131   H     0.63040   0.15260   0.23870   0.01267  Uiso   1.00
H132   H     0.67960   0.10700   0.17780   0.01267  Uiso   1.00
H133   H     0.78390   0.20620   0.00880   0.01267  Uiso   1.00
H134   H     0.80890   0.24890   0.99540   0.01267  Uiso   1.00
H135   H     0.83090   0.19020   0.02940   0.01267  Uiso   1.00
H136   H     0.66250   0.34070   0.15020   0.01267  Uiso   1.00
H137   H     0.70250   0.30410   0.18280   0.01267  Uiso   1.00
H138   H     0.72110   0.34210   0.12530   0.01267  Uiso   1.00
H139   H     0.57180   0.25030   0.35350   0.01267  Uiso   1.00
H140   H     0.58870   0.31300   0.17790   0.01267  Uiso   1.00
H141   H     0.53080   0.36980   0.23000   0.01267  Uiso   1.00
H142   H     0.63620   0.19840   0.29960   0.01267  Uiso   1.00
H143   H     0.80400   0.41700   0.04700   0.01267  Uiso   1.00
H144   H     0.83600   0.48880   0.99360   0.01267  Uiso   1.00
H145   H     0.87260   0.50470   0.90240   0.01267  Uiso   1.00
H146   H     0.87690   0.44880   0.86460   0.01267  Uiso   1.00
H147   H     0.84490   0.37700   0.91800   0.01267  Uiso   1.00
H148   H     0.03940   0.05030   0.87530   0.01267  Uiso   1.00
H149   H     0.10160   0.09470   0.83020   0.01267  Uiso   1.00
H150   H     0.11620   0.08340   0.69370   0.01267  Uiso   1.00
H151   H     0.05590   0.03550   0.74340   0.01267  Uiso   1.00
H152   H     0.15260   0.23870   0.63040   0.01267  Uiso   1.00
H153   H     0.10700   0.17780   0.67960   0.01267  Uiso   1.00
H154   H     0.20620   0.00880   0.78390   0.01267  Uiso   1.00
H155   H     0.24890   0.99540   0.80890   0.01267  Uiso   1.00
H156   H     0.19020   0.02940   0.83090   0.01267  Uiso   1.00
H157   H     0.34070   0.15020   0.66250   0.01267  Uiso   1.00
H158   H     0.30410   0.18280   0.70250   0.01267  Uiso   1.00
H159   H     0.34210   0.12530   0.72110   0.01267  Uiso   1.00
H160   H     0.25030   0.35350   0.57180   0.01267  Uiso   1.00
H161   H     0.31300   0.17790   0.58870   0.01267  Uiso   1.00
H162   H     0.36980   0.23000   0.53080   0.01267  Uiso   1.00
H163   H     0.19840   0.29960   0.63620   0.01267  Uiso   1.00
H164   H     0.41700   0.04700   0.80400   0.01267  Uiso   1.00
H165   H     0.48880   0.99360   0.83600   0.01267  Uiso   1.00
H166   H     0.50470   0.90240   0.87260   0.01267  Uiso   1.00
H167   H     0.44880   0.86460   0.87690   0.01267  Uiso   1.00
H168   H     0.37700   0.91800   0.84490   0.01267  Uiso   1.00
H169   H     0.05030   0.87530   0.03940   0.01267  Uiso   1.00
H170   H     0.09470   0.83020   0.10160   0.01267  Uiso   1.00
H171   H     0.08340   0.69370   0.11620   0.01267  Uiso   1.00
H172   H     0.03550   0.74340   0.05590   0.01267  Uiso   1.00
H173   H     0.23870   0.63040   0.15260   0.01267  Uiso   1.00
H174   H     0.17780   0.67960   0.10700   0.01267  Uiso   1.00
H175   H     0.00880   0.78390   0.20620   0.01267  Uiso   1.00
H176   H     0.99540   0.80890   0.24890   0.01267  Uiso   1.00
H177   H     0.02940   0.83090   0.19020   0.01267  Uiso   1.00
H178   H     0.15020   0.66250   0.34070   0.01267  Uiso   1.00
H179   H     0.18280   0.70250   0.30410   0.01267  Uiso   1.00
H180   H     0.12530   0.72110   0.34210   0.01267  Uiso   1.00
H181   H     0.35350   0.57180   0.25030   0.01267  Uiso   1.00
H182   H     0.17790   0.58870   0.31300   0.01267  Uiso   1.00
H183   H     0.23000   0.53080   0.36980   0.01267  Uiso   1.00
H184   H     0.29960   0.63620   0.19840   0.01267  Uiso   1.00
H185   H     0.04700   0.80400   0.41700   0.01267  Uiso   1.00
H186   H     0.99360   0.83600   0.48880   0.01267  Uiso   1.00
H187   H     0.90240   0.87260   0.50470   0.01267  Uiso   1.00
H188   H     0.86460   0.87690   0.44880   0.01267  Uiso   1.00
H189   H     0.91800   0.84490   0.37700   0.01267  Uiso   1.00
H190   H     0.53940   0.37530   0.55030   0.01267  Uiso   1.00
H191   H     0.60160   0.33020   0.59470   0.01267  Uiso   1.00
H192   H     0.61620   0.19370   0.58340   0.01267  Uiso   1.00
H193   H     0.55590   0.24340   0.53550   0.01267  Uiso   1.00
H194   H     0.65260   0.13040   0.73870   0.01267  Uiso   1.00
H195   H     0.60700   0.17960   0.67780   0.01267  Uiso   1.00
H196   H     0.70620   0.28390   0.50880   0.01267  Uiso   1.00
H197   H     0.74890   0.30890   0.49540   0.01267  Uiso   1.00
H198   H     0.69020   0.33090   0.52940   0.01267  Uiso   1.00
H199   H     0.84070   0.16250   0.65020   0.01267  Uiso   1.00
H200   H     0.80410   0.20250   0.68280   0.01267  Uiso   1.00
H201   H     0.84210   0.22110   0.62530   0.01267  Uiso   1.00
H202   H     0.75030   0.07180   0.85350   0.01267  Uiso   1.00
H203   H     0.81300   0.08870   0.67790   0.01267  Uiso   1.00
H204   H     0.86980   0.03080   0.73000   0.01267  Uiso   1.00
H205   H     0.69840   0.13620   0.79960   0.01267  Uiso   1.00
H206   H     0.91700   0.30400   0.54700   0.01267  Uiso   1.00
H207   H     0.98880   0.33600   0.49360   0.01267  Uiso   1.00
H208   H     0.00470   0.37260   0.40240   0.01267  Uiso   1.00
H209   H     0.94880   0.37690   0.36460   0.01267  Uiso   1.00
H210   H     0.87700   0.34490   0.41800   0.01267  Uiso   1.00
H211   H     0.55030   0.53940   0.37530   0.01267  Uiso   1.00
H212   H     0.59470   0.60160   0.33020   0.01267  Uiso   1.00
H213   H     0.58340   0.61620   0.19370   0.01267  Uiso   1.00
H214   H     0.53550   0.55590   0.24340   0.01267  Uiso   1.00
H215   H     0.73870   0.65260   0.13040   0.01267  Uiso   1.00
H216   H     0.67780   0.60700   0.17960   0.01267  Uiso   1.00
H217   H     0.50880   0.70620   0.28390   0.01267  Uiso   1.00
H218   H     0.49540   0.74890   0.30890   0.01267  Uiso   1.00
H219   H     0.52940   0.69020   0.33090   0.01267  Uiso   1.00
H220   H     0.65020   0.84070   0.16250   0.01267  Uiso   1.00
H221   H     0.68280   0.80410   0.20250   0.01267  Uiso   1.00
H222   H     0.62530   0.84210   0.22110   0.01267  Uiso   1.00
H223   H     0.85350   0.75030   0.07180   0.01267  Uiso   1.00
H224   H     0.67790   0.81300   0.08870   0.01267  Uiso   1.00
H225   H     0.73000   0.86980   0.03080   0.01267  Uiso   1.00
H226   H     0.79960   0.69840   0.13620   0.01267  Uiso   1.00
H227   H     0.54700   0.91700   0.30400   0.01267  Uiso   1.00
H228   H     0.49360   0.98880   0.33600   0.01267  Uiso   1.00
H229   H     0.40240   0.00470   0.37260   0.01267  Uiso   1.00
H230   H     0.36460   0.94880   0.37690   0.01267  Uiso   1.00
H231   H     0.41800   0.87700   0.34490   0.01267  Uiso   1.00
H232   H     0.37530   0.55030   0.53940   0.01267  Uiso   1.00
H233   H     0.33020   0.59470   0.60160   0.01267  Uiso   1.00
H234   H     0.19370   0.58340   0.61620   0.01267  Uiso   1.00
H235   H     0.24340   0.53550   0.55590   0.01267  Uiso   1.00
H236   H     0.13040   0.73870   0.65260   0.01267  Uiso   1.00
H237   H     0.17960   0.67780   0.60700   0.01267  Uiso   1.00
H238   H     0.28390   0.50880   0.70620   0.01267  Uiso   1.00
H239   H     0.30890   0.49540   0.74890   0.01267  Uiso   1.00
H240   H     0.33090   0.52940   0.69020   0.01267  Uiso   1.00
H241   H     0.16250   0.65020   0.84070   0.01267  Uiso   1.00
H242   H     0.20250   0.68280   0.80410   0.01267  Uiso   1.00
H243   H     0.22110   0.62530   0.84210   0.01267  Uiso   1.00
H244   H     0.07180   0.85350   0.75030   0.01267  Uiso   1.00
H245   H     0.08870   0.67790   0.81300   0.01267  Uiso   1.00
H246   H     0.03080   0.73000   0.86980   0.01267  Uiso   1.00
H247   H     0.13620   0.79960   0.69840   0.01267  Uiso   1.00
H248   H     0.30400   0.54700   0.91700   0.01267  Uiso   1.00
H249   H     0.33600   0.49360   0.98880   0.01267  Uiso   1.00
H250   H     0.37260   0.40240   0.00470   0.01267  Uiso   1.00
H251   H     0.37690   0.36460   0.94880   0.01267  Uiso   1.00
H252   H     0.34490   0.41800   0.87700   0.01267  Uiso   1.00
Pd7    Pd    0.78780   0.33146   0.03324   0.01267  Uiso   1.00
Pd8    Pd    0.33146   0.03324   0.78780   0.01267  Uiso   1.00
Pd9    Pd    0.03324   0.78780   0.33146   0.01267  Uiso   1.00
Pd10   Pd    0.83146   0.28780   0.53324   0.01267  Uiso   1.00
Pd11   Pd    0.53324   0.83146   0.28780   0.01267  Uiso   1.00
Pd12   Pd    0.28780   0.53324   0.83146   0.01267  Uiso   1.00
C169   C     0.84710   0.00500   0.00310   0.01267  Uiso   1.00
C170   C     0.83900   0.05570   0.05590   0.01267  Uiso   1.00
C171   C     0.81230   0.09210   0.08310   0.01267  Uiso   1.00
C172   C     0.75740   0.11440   0.09260   0.01267  Uiso   1.00
C173   C     0.73040   0.10170   0.07620   0.01267  Uiso   1.00
C174   C     0.76100   0.06490   0.04760   0.01267  Uiso   1.00
C175   C     0.81420   0.04200   0.03650   0.01267  Uiso   1.00
C176   C     0.72490   0.15240   0.12460   0.01267  Uiso   1.00
C177   C     0.65320   0.16710   0.20650   0.01267  Uiso   1.00
C178   C     0.68550   0.13810   0.17020   0.01267  Uiso   1.00
C179   C     0.69670   0.23290   0.15030   0.01267  Uiso   1.00
C180   C     0.50640   0.34330   0.34030   0.01267  Uiso   1.00
C181   C     0.65510   0.21680   0.19510   0.01267  Uiso   1.00
C182   C     0.75350   0.27730   0.07670   0.01267  Uiso   1.00
C183   C     0.72820   0.20200   0.11310   0.01267  Uiso   1.00
C184   C     0.79960   0.21790   0.02190   0.01267  Uiso   1.00
C185   C     0.69880   0.31980   0.14800   0.01267  Uiso   1.00
C186   C     0.61760   0.25070   0.23350   0.01267  Uiso   1.00
C187   C     0.57710   0.26360   0.31720   0.01267  Uiso   1.00
C188   C     0.58640   0.30100   0.21350   0.01267  Uiso   1.00
C189   C     0.55070   0.33540   0.24450   0.01267  Uiso   1.00
C190   C     0.54740   0.31550   0.29530   0.01267  Uiso   1.00
C191   C     0.61430   0.23160   0.28560   0.01267  Uiso   1.00
C192   C     0.81860   0.42330   0.01050   0.01267  Uiso   1.00
C193   C     0.83780   0.46640   0.97850   0.01267  Uiso   1.00
C194   C     0.85960   0.47590   0.92380   0.01267  Uiso   1.00
C195   C     0.86230   0.44240   0.90120   0.01267  Uiso   1.00
C196   C     0.84303   0.39943   0.93323   0.01267  Uiso   1.00
C197   C     0.00500   0.00310   0.84710   0.01267  Uiso   1.00
C198   C     0.05570   0.05590   0.83900   0.01267  Uiso   1.00
C199   C     0.09210   0.08310   0.81230   0.01267  Uiso   1.00
C200   C     0.11440   0.09260   0.75740   0.01267  Uiso   1.00
C201   C     0.10170   0.07620   0.73040   0.01267  Uiso   1.00
C202   C     0.06490   0.04760   0.76100   0.01267  Uiso   1.00
C203   C     0.04200   0.03650   0.81420   0.01267  Uiso   1.00
C204   C     0.15240   0.12460   0.72490   0.01267  Uiso   1.00
C205   C     0.16710   0.20650   0.65320   0.01267  Uiso   1.00
C206   C     0.13810   0.17020   0.68550   0.01267  Uiso   1.00
C207   C     0.23290   0.15030   0.69670   0.01267  Uiso   1.00
C208   C     0.34330   0.34030   0.50640   0.01267  Uiso   1.00
C209   C     0.21680   0.19510   0.65510   0.01267  Uiso   1.00
C210   C     0.27730   0.07670   0.75350   0.01267  Uiso   1.00
C211   C     0.20200   0.11310   0.72820   0.01267  Uiso   1.00
C212   C     0.21790   0.02190   0.79960   0.01267  Uiso   1.00
C213   C     0.31980   0.14800   0.69880   0.01267  Uiso   1.00
C214   C     0.25070   0.23350   0.61760   0.01267  Uiso   1.00
C215   C     0.26360   0.31720   0.57710   0.01267  Uiso   1.00
C216   C     0.30100   0.21350   0.58640   0.01267  Uiso   1.00
C217   C     0.33540   0.24450   0.55070   0.01267  Uiso   1.00
C218   C     0.31550   0.29530   0.54740   0.01267  Uiso   1.00
C219   C     0.23160   0.28560   0.61430   0.01267  Uiso   1.00
C220   C     0.42330   0.01050   0.81860   0.01267  Uiso   1.00
C221   C     0.46640   0.97850   0.83780   0.01267  Uiso   1.00
C222   C     0.47590   0.92380   0.85960   0.01267  Uiso   1.00
C223   C     0.44240   0.90120   0.86230   0.01267  Uiso   1.00
C224   C     0.39943   0.93323   0.84303   0.01267  Uiso   1.00
C225   C     0.00310   0.84710   0.00500   0.01267  Uiso   1.00
C226   C     0.05590   0.83900   0.05570   0.01267  Uiso   1.00
C227   C     0.08310   0.81230   0.09210   0.01267  Uiso   1.00
C228   C     0.09260   0.75740   0.11440   0.01267  Uiso   1.00
C229   C     0.07620   0.73040   0.10170   0.01267  Uiso   1.00
C230   C     0.04760   0.76100   0.06490   0.01267  Uiso   1.00
C231   C     0.03650   0.81420   0.04200   0.01267  Uiso   1.00
C232   C     0.12460   0.72490   0.15240   0.01267  Uiso   1.00
C233   C     0.20650   0.65320   0.16710   0.01267  Uiso   1.00
C234   C     0.17020   0.68550   0.13810   0.01267  Uiso   1.00
C235   C     0.15030   0.69670   0.23290   0.01267  Uiso   1.00
C236   C     0.34030   0.50640   0.34330   0.01267  Uiso   1.00
C237   C     0.19510   0.65510   0.21680   0.01267  Uiso   1.00
C238   C     0.07670   0.75350   0.27730   0.01267  Uiso   1.00
C239   C     0.11310   0.72820   0.20200   0.01267  Uiso   1.00
C240   C     0.02190   0.79960   0.21790   0.01267  Uiso   1.00
C241   C     0.14800   0.69880   0.31980   0.01267  Uiso   1.00
C242   C     0.23350   0.61760   0.25070   0.01267  Uiso   1.00
C243   C     0.31720   0.57710   0.26360   0.01267  Uiso   1.00
C244   C     0.21350   0.58640   0.30100   0.01267  Uiso   1.00
C245   C     0.24450   0.55070   0.33540   0.01267  Uiso   1.00
C246   C     0.29530   0.54740   0.31550   0.01267  Uiso   1.00
C247   C     0.28560   0.61430   0.23160   0.01267  Uiso   1.00
C248   C     0.01050   0.81860   0.42330   0.01267  Uiso   1.00
C249   C     0.97850   0.83780   0.46640   0.01267  Uiso   1.00
C250   C     0.92380   0.85960   0.47590   0.01267  Uiso   1.00
C251   C     0.90120   0.86230   0.44240   0.01267  Uiso   1.00
C252   C     0.93323   0.84303   0.39943   0.01267  Uiso   1.00
C253   C     0.50500   0.34710   0.50310   0.01267  Uiso   1.00
C254   C     0.55570   0.33900   0.55590   0.01267  Uiso   1.00
C255   C     0.59210   0.31230   0.58310   0.01267  Uiso   1.00
C256   C     0.61440   0.25740   0.59260   0.01267  Uiso   1.00
C257   C     0.60170   0.23040   0.57620   0.01267  Uiso   1.00
C258   C     0.56490   0.26100   0.54760   0.01267  Uiso   1.00
C259   C     0.54200   0.31420   0.53650   0.01267  Uiso   1.00
C260   C     0.65240   0.22490   0.62460   0.01267  Uiso   1.00
C261   C     0.66710   0.15320   0.70650   0.01267  Uiso   1.00
C262   C     0.63810   0.18550   0.67020   0.01267  Uiso   1.00
C263   C     0.73290   0.19670   0.65030   0.01267  Uiso   1.00
C264   C     0.84330   0.00640   0.84030   0.01267  Uiso   1.00
C265   C     0.71680   0.15510   0.69510   0.01267  Uiso   1.00
C266   C     0.77730   0.25350   0.57670   0.01267  Uiso   1.00
C267   C     0.70200   0.22820   0.61310   0.01267  Uiso   1.00
C268   C     0.71790   0.29960   0.52190   0.01267  Uiso   1.00
C269   C     0.81980   0.19880   0.64800   0.01267  Uiso   1.00
C270   C     0.75070   0.11760   0.73350   0.01267  Uiso   1.00
C271   C     0.76360   0.07710   0.81720   0.01267  Uiso   1.00
C272   C     0.80100   0.08640   0.71350   0.01267  Uiso   1.00
C273   C     0.83540   0.05070   0.74450   0.01267  Uiso   1.00
C274   C     0.81550   0.04740   0.79530   0.01267  Uiso   1.00
C275   C     0.73160   0.11430   0.78560   0.01267  Uiso   1.00
C276   C     0.92330   0.31860   0.51050   0.01267  Uiso   1.00
C277   C     0.96640   0.33780   0.47850   0.01267  Uiso   1.00
C278   C     0.97590   0.35960   0.42380   0.01267  Uiso   1.00
C279   C     0.94240   0.36230   0.40120   0.01267  Uiso   1.00
C280   C     0.89943   0.34303   0.43323   0.01267  Uiso   1.00
C281   C     0.50310   0.50500   0.34710   0.01267  Uiso   1.00
C282   C     0.55590   0.55570   0.33900   0.01267  Uiso   1.00
C283   C     0.58310   0.59210   0.31230   0.01267  Uiso   1.00
C284   C     0.59260   0.61440   0.25740   0.01267  Uiso   1.00
C285   C     0.57620   0.60170   0.23040   0.01267  Uiso   1.00
C286   C     0.54760   0.56490   0.26100   0.01267  Uiso   1.00
C287   C     0.53650   0.54200   0.31420   0.01267  Uiso   1.00
C288   C     0.62460   0.65240   0.22490   0.01267  Uiso   1.00
C289   C     0.70650   0.66710   0.15320   0.01267  Uiso   1.00
C290   C     0.67020   0.63810   0.18550   0.01267  Uiso   1.00
C291   C     0.65030   0.73290   0.19670   0.01267  Uiso   1.00
C292   C     0.84030   0.84330   0.00640   0.01267  Uiso   1.00
C293   C     0.69510   0.71680   0.15510   0.01267  Uiso   1.00
C294   C     0.57670   0.77730   0.25350   0.01267  Uiso   1.00
C295   C     0.61310   0.70200   0.22820   0.01267  Uiso   1.00
C296   C     0.52190   0.71790   0.29960   0.01267  Uiso   1.00
C297   C     0.64800   0.81980   0.19880   0.01267  Uiso   1.00
C298   C     0.73350   0.75070   0.11760   0.01267  Uiso   1.00
C299   C     0.81720   0.76360   0.07710   0.01267  Uiso   1.00
C300   C     0.71350   0.80100   0.08640   0.01267  Uiso   1.00
C301   C     0.74450   0.83540   0.05070   0.01267  Uiso   1.00
C302   C     0.79530   0.81550   0.04740   0.01267  Uiso   1.00
C303   C     0.78560   0.73160   0.11430   0.01267  Uiso   1.00
C304   C     0.51050   0.92330   0.31860   0.01267  Uiso   1.00
C305   C     0.47850   0.96640   0.33780   0.01267  Uiso   1.00
C306   C     0.42380   0.97590   0.35960   0.01267  Uiso   1.00
C307   C     0.40120   0.94240   0.36230   0.01267  Uiso   1.00
C308   C     0.43323   0.89943   0.34303   0.01267  Uiso   1.00
C309   C     0.34710   0.50310   0.50500   0.01267  Uiso   1.00
C310   C     0.33900   0.55590   0.55570   0.01267  Uiso   1.00
C311   C     0.31230   0.58310   0.59210   0.01267  Uiso   1.00
C312   C     0.25740   0.59260   0.61440   0.01267  Uiso   1.00
C313   C     0.23040   0.57620   0.60170   0.01267  Uiso   1.00
C314   C     0.26100   0.54760   0.56490   0.01267  Uiso   1.00
C315   C     0.31420   0.53650   0.54200   0.01267  Uiso   1.00
C316   C     0.22490   0.62460   0.65240   0.01267  Uiso   1.00
C317   C     0.15320   0.70650   0.66710   0.01267  Uiso   1.00
C318   C     0.18550   0.67020   0.63810   0.01267  Uiso   1.00
C319   C     0.19670   0.65030   0.73290   0.01267  Uiso   1.00
C320   C     0.00640   0.84030   0.84330   0.01267  Uiso   1.00
C321   C     0.15510   0.69510   0.71680   0.01267  Uiso   1.00
C322   C     0.25350   0.57670   0.77730   0.01267  Uiso   1.00
C323   C     0.22820   0.61310   0.70200   0.01267  Uiso   1.00
C324   C     0.29960   0.52190   0.71790   0.01267  Uiso   1.00
C325   C     0.19880   0.64800   0.81980   0.01267  Uiso   1.00
C326   C     0.11760   0.73350   0.75070   0.01267  Uiso   1.00
C327   C     0.07710   0.81720   0.76360   0.01267  Uiso   1.00
C328   C     0.08640   0.71350   0.80100   0.01267  Uiso   1.00
C329   C     0.05070   0.74450   0.83540   0.01267  Uiso   1.00
C330   C     0.04740   0.79530   0.81550   0.01267  Uiso   1.00
C331   C     0.11430   0.78560   0.73160   0.01267  Uiso   1.00
C332   C     0.31860   0.51050   0.92330   0.01267  Uiso   1.00
C333   C     0.33780   0.47850   0.96640   0.01267  Uiso   1.00
C334   C     0.35960   0.42380   0.97590   0.01267  Uiso   1.00
C335   C     0.36230   0.40120   0.94240   0.01267  Uiso   1.00
C336   C     0.34303   0.43323   0.89943   0.01267  Uiso   1.00
I13    I     0.86095   0.27643   0.07818   0.01267  Uiso   1.00
I14    I     0.71208   0.37908   0.99081   0.01267  Uiso   1.00
I15    I     0.27643   0.07818   0.86095   0.01267  Uiso   1.00
I16    I     0.37908   0.99081   0.71208   0.01267  Uiso   1.00
I17    I     0.07818   0.86095   0.27643   0.01267  Uiso   1.00
I18    I     0.99081   0.71208   0.37908   0.01267  Uiso   1.00
I19    I     0.77643   0.36095   0.57818   0.01267  Uiso   1.00
I20    I     0.87908   0.21208   0.49081   0.01267  Uiso   1.00
I21    I     0.57818   0.77643   0.36095   0.01267  Uiso   1.00
I22    I     0.49081   0.87908   0.21208   0.01267  Uiso   1.00
I23    I     0.36095   0.57818   0.77643   0.01267  Uiso   1.00
I24    I     0.21208   0.49081   0.87908   0.01267  Uiso   1.00
N19    N     0.71520   0.27580   0.12490   0.01267  Uiso   1.00
N20    N     0.76140   0.23080   0.07060   0.01267  Uiso   1.00
N21    N     0.82120   0.38990   0.98790   0.01267  Uiso   1.00
N22    N     0.27580   0.12490   0.71520   0.01267  Uiso   1.00
N23    N     0.23080   0.07060   0.76140   0.01267  Uiso   1.00
N24    N     0.38990   0.98790   0.82120   0.01267  Uiso   1.00
N25    N     0.12490   0.71520   0.27580   0.01267  Uiso   1.00
N26    N     0.07060   0.76140   0.23080   0.01267  Uiso   1.00
N27    N     0.98790   0.82120   0.38990   0.01267  Uiso   1.00
N28    N     0.77580   0.21520   0.62490   0.01267  Uiso   1.00
N29    N     0.73080   0.26140   0.57060   0.01267  Uiso   1.00
N30    N     0.88990   0.32120   0.48790   0.01267  Uiso   1.00
N31    N     0.62490   0.77580   0.21520   0.01267  Uiso   1.00
N32    N     0.57060   0.73080   0.26140   0.01267  Uiso   1.00
N33    N     0.48790   0.88990   0.32120   0.01267  Uiso   1.00
N34    N     0.21520   0.62490   0.77580   0.01267  Uiso   1.00
N35    N     0.26140   0.57060   0.73080   0.01267  Uiso   1.00
N36    N     0.32120   0.48790   0.88990   0.01267  Uiso   1.00
O27    O     0.89552   0.98672   0.00002   0.01267  Uiso   1.00
O28    O     0.82207   0.99717   0.98667   0.01267  Uiso   1.00
O29    O     0.49995   0.32025   0.38675   0.01267  Uiso   1.00
O30    O     0.49327   0.39307   0.31287   0.01267  Uiso   1.00
O31    O     0.98672   0.00002   0.89552   0.01267  Uiso   1.00
O32    O     0.99717   0.98667   0.82207   0.01267  Uiso   1.00
O33    O     0.32025   0.38675   0.49995   0.01267  Uiso   1.00
O34    O     0.39307   0.31287   0.49327   0.01267  Uiso   1.00
O35    O     0.00002   0.89552   0.98672   0.01267  Uiso   1.00
O36    O     0.98667   0.82207   0.99717   0.01267  Uiso   1.00
O37    O     0.38675   0.49995   0.32025   0.01267  Uiso   1.00
O38    O     0.31287   0.49327   0.39307   0.01267  Uiso   1.00
O39    O     0.48672   0.39552   0.50002   0.01267  Uiso   1.00
O40    O     0.49717   0.32207   0.48667   0.01267  Uiso   1.00
O41    O     0.82025   0.99995   0.88675   0.01267  Uiso   1.00
O42    O     0.89307   0.99327   0.81287   0.01267  Uiso   1.00
O43    O     0.50002   0.48672   0.39552   0.01267  Uiso   1.00
O44    O     0.48667   0.49717   0.32207   0.01267  Uiso   1.00
O45    O     0.88675   0.82025   0.99995   0.01267  Uiso   1.00
O46    O     0.81287   0.89307   0.99327   0.01267  Uiso   1.00
O47    O     0.39552   0.50002   0.48672   0.01267  Uiso   1.00
O48    O     0.32207   0.48667   0.49717   0.01267  Uiso   1.00
O49    O     0.99995   0.88675   0.82025   0.01267  Uiso   1.00
O50    O     0.99327   0.81287   0.89307   0.01267  Uiso   1.00
O51    O     0.92244   0.92244   0.92244   0.01267  Uiso   1.00
O52    O     0.42244   0.42244   0.42244   0.01267  Uiso   1.00
