data_VEYREY_clean
_audit_creation_date              2014-07-02
_audit_creation_method            'Materials Studio'
_symmetry_space_group_name_H-M    'P1'
_symmetry_Int_Tables_number       1
_symmetry_cell_setting            triclinic
loop_
_symmetry_equiv_pos_as_xyz
  x,y,z
_cell_length_a                    26.9668
_cell_length_b                    26.9668
_cell_length_c                    26.9668
_cell_angle_alpha                 64.4320
_cell_angle_beta                  82.1352
_cell_angle_gamma                 115.5680
loop_
_atom_site_label
_atom_site_type_symbol
_atom_site_fract_x
_atom_site_fract_y
_atom_site_fract_z
_atom_site_U_iso_or_equiv
_atom_site_adp_type
_atom_site_occupancy
Cu1    Cu    0.00757   0.05120   0.26711   0.01267  Uiso   1.00
Cu2    Cu    0.00342   0.06381   0.35939   0.01267  Uiso   1.00
Cu3    Cu    0.68169   0.94880   0.04363   0.01267  Uiso   1.00
Cu4    Cu    0.57680   0.93619   0.06039   0.01267  Uiso   1.00
Cu5    Cu    0.95637   0.27468   0.99243   0.01267  Uiso   1.00
Cu6    Cu    0.93961   0.36281   0.99658   0.01267  Uiso   1.00
Cu7    Cu    0.73289   0.72532   0.31831   0.01267  Uiso   1.00
Cu8    Cu    0.64061   0.63719   0.42320   0.01267  Uiso   1.00
Cu9    Cu    0.99243   0.94880   0.73289   0.01267  Uiso   1.00
Cu10   Cu    0.99658   0.93619   0.64061   0.01267  Uiso   1.00
Cu11   Cu    0.31831   0.05120   0.95637   0.01267  Uiso   1.00
Cu12   Cu    0.42320   0.06381   0.93961   0.01267  Uiso   1.00
Cu13   Cu    0.04363   0.72532   0.00757   0.01267  Uiso   1.00
Cu14   Cu    0.06039   0.63719   0.00342   0.01267  Uiso   1.00
Cu15   Cu    0.26711   0.27468   0.68169   0.01267  Uiso   1.00
Cu16   Cu    0.35939   0.36281   0.57680   0.01267  Uiso   1.00
Cu17   Cu    0.27498   0.31452   0.96046   0.01267  Uiso   1.00
Cu18   Cu    0.36523   0.42327   0.94196   0.01267  Uiso   1.00
Cu19   Cu    0.72502   0.68548   0.03954   0.01267  Uiso   1.00
Cu20   Cu    0.63477   0.57673   0.05804   0.01267  Uiso   1.00
Cu21   Cu    0.96046   0.23544   0.72502   0.01267  Uiso   1.00
Cu22   Cu    0.94196   0.30719   0.63477   0.01267  Uiso   1.00
Cu23   Cu    0.03954   0.76456   0.27498   0.01267  Uiso   1.00
Cu24   Cu    0.05804   0.69281   0.36523   0.01267  Uiso   1.00
Si1    Si    0.88944   0.60797   0.85921   0.01267  Uiso   1.00
Si2    Si    0.53282   0.39203   0.71853   0.01267  Uiso   1.00
Si3    Si    0.28147   0.74865   0.11056   0.01267  Uiso   1.00
Si4    Si    0.14079   0.25135   0.46718   0.01267  Uiso   1.00
Si5    Si    0.11056   0.39203   0.14079   0.01267  Uiso   1.00
Si6    Si    0.46718   0.60797   0.28147   0.01267  Uiso   1.00
Si7    Si    0.71853   0.25135   0.88944   0.01267  Uiso   1.00
Si8    Si    0.85921   0.74865   0.53282   0.01267  Uiso   1.00
Si9    Si    0.60929   0.75826   0.85103   0.01267  Uiso   1.00
Si10   Si    0.39071   0.24174   0.14897   0.01267  Uiso   1.00
Si11   Si    0.85103   0.46032   0.39071   0.01267  Uiso   1.00
Si12   Si    0.14897   0.53968   0.60929   0.01267  Uiso   1.00
H1     H     0.52800   0.24680   0.93360   0.01267  Uiso   1.00
H2     H     0.50090   0.38050   0.93580   0.01267  Uiso   1.00
H3     H     0.36300   0.21420   0.96720   0.01267  Uiso   1.00
H4     H     0.82950   0.86930   0.35180   0.01267  Uiso   1.00
H5     H     0.67980   0.75830   0.50070   0.01267  Uiso   1.00
H6     H     0.82150   0.91880   0.47170   0.01267  Uiso   1.00
H7     H     0.04040   0.92230   0.45810   0.01267  Uiso   1.00
H8     H     0.05370   0.77830   0.46320   0.01267  Uiso   1.00
H9     H     0.05510   0.90840   0.31530   0.01267  Uiso   1.00
H10    H     0.94750   0.78960   0.66110   0.01267  Uiso   1.00
H11    H     0.90110   0.72340   0.76310   0.01267  Uiso   1.00
H12    H     0.96960   0.61760   0.76500   0.01267  Uiso   1.00
H13    H     0.01670   0.68350   0.66280   0.01267  Uiso   1.00
H14    H     0.93120   0.54440   0.87040   0.01267  Uiso   1.00
H15    H     0.90250   0.53140   0.93290   0.01267  Uiso   1.00
H16    H     0.96530   0.59570   0.88620   0.01267  Uiso   1.00
H17    H     0.92570   0.68720   0.88470   0.01267  Uiso   1.00
H18    H     0.86100   0.62770   0.93270   0.01267  Uiso   1.00
H19    H     0.86970   0.68110   0.87040   0.01267  Uiso   1.00
H20    H     0.83650   0.51300   0.82790   0.01267  Uiso   1.00
H21    H     0.74330   0.43730   0.84240   0.01267  Uiso   1.00
H22    H     0.67130   0.48920   0.93630   0.01267  Uiso   1.00
H23    H     0.76510   0.56730   0.91680   0.01267  Uiso   1.00
H24    H     0.59910   0.83220   0.73710   0.01267  Uiso   1.00
H25    H     0.62190   0.83880   0.64450   0.01267  Uiso   1.00
H26    H     0.72330   0.77410   0.68480   0.01267  Uiso   1.00
H27    H     0.69630   0.76130   0.77720   0.01267  Uiso   1.00
H28    H     0.81960   0.75320   0.71880   0.01267  Uiso   1.00
H29    H     0.68370   0.61950   0.87960   0.01267  Uiso   1.00
H30    H     0.81860   0.78580   0.85120   0.01267  Uiso   1.00
H31    H     0.77890   0.13070   0.03980   0.01267  Uiso   1.00
H32    H     0.74100   0.24170   0.07850   0.01267  Uiso   1.00
H33    H     0.60950   0.08120   0.09730   0.01267  Uiso   1.00
H34    H     0.61960   0.07770   0.88190   0.01267  Uiso   1.00
H35    H     0.75850   0.22170   0.72460   0.01267  Uiso   1.00
H36    H     0.77630   0.09160   0.85330   0.01267  Uiso   1.00
H37    H     0.54930   0.21040   0.84210   0.01267  Uiso   1.00
H38    H     0.51350   0.27660   0.82230   0.01267  Uiso   1.00
H39    H     0.61740   0.38240   0.64800   0.01267  Uiso   1.00
H40    H     0.65370   0.31650   0.66680   0.01267  Uiso   1.00
H41    H     0.58520   0.45560   0.61320   0.01267  Uiso   1.00
H42    H     0.53570   0.46860   0.62890   0.01267  Uiso   1.00
H43    H     0.51810   0.40430   0.63040   0.01267  Uiso   1.00
H44    H     0.42810   0.31280   0.76150   0.01267  Uiso   1.00
H45    H     0.43960   0.37230   0.76670   0.01267  Uiso   1.00
H46    H     0.44850   0.31890   0.81140   0.01267  Uiso   1.00
H47    H     0.65910   0.48700   0.67650   0.01267  Uiso   1.00
H48    H     0.72030   0.56270   0.69400   0.01267  Uiso   1.00
H49    H     0.57450   0.51080   0.81790   0.01267  Uiso   1.00
H50    H     0.51590   0.43270   0.80220   0.01267  Uiso   1.00
H51    H     0.43070   0.16780   0.23310   0.01267  Uiso   1.00
H52    H     0.51670   0.16120   0.21690   0.01267  Uiso   1.00
H53    H     0.54110   0.22590   0.05080   0.01267  Uiso   1.00
H54    H     0.46150   0.23870   0.06500   0.01267  Uiso   1.00
H55    H     0.28120   0.46160   0.47200   0.01267  Uiso   1.00
H56    H     0.12040   0.43670   0.49910   0.01267  Uiso   1.00
H57    H     0.14880   0.33020   0.63700   0.01267  Uiso   1.00
H58    H     0.96020   0.18130   0.17050   0.01267  Uiso   1.00
H59    H     0.92150   0.18050   0.32020   0.01267  Uiso   1.00
H60    H     0.90270   0.29320   0.17850   0.01267  Uiso   1.00
H61    H     0.11810   0.49850   0.95960   0.01267  Uiso   1.00
H62    H     0.27540   0.51690   0.94630   0.01267  Uiso   1.00
H63    H     0.14670   0.37040   0.94490   0.01267  Uiso   1.00
H64    H     0.15790   0.60860   0.05250   0.01267  Uiso   1.00
H65    H     0.17770   0.66420   0.09890   0.01267  Uiso   1.00
H66    H     0.35200   0.73460   0.03040   0.01267  Uiso   1.00
H67    H     0.33320   0.67950   0.98330   0.01267  Uiso   1.00
H68    H     0.38680   0.80160   0.06880   0.01267  Uiso   1.00
H69    H     0.37110   0.83540   0.09750   0.01267  Uiso   1.00
H70    H     0.36960   0.85150   0.03470   0.01267  Uiso   1.00
H71    H     0.23850   0.81040   0.07430   0.01267  Uiso   1.00
H72    H     0.23330   0.79370   0.13900   0.01267  Uiso   1.00
H73    H     0.18860   0.74010   0.13030   0.01267  Uiso   1.00
H74    H     0.32350   0.66440   0.16350   0.01267  Uiso   1.00
H75    H     0.30600   0.58570   0.25670   0.01267  Uiso   1.00
H76    H     0.18210   0.60760   0.32870   0.01267  Uiso   1.00
H77    H     0.19780   0.68190   0.23490   0.01267  Uiso   1.00
H78    H     0.76690   0.33620   0.40090   0.01267  Uiso   1.00
H79    H     0.78310   0.26640   0.37810   0.01267  Uiso   1.00
H80    H     0.94920   0.40810   0.27670   0.01267  Uiso   1.00
H81    H     0.93500   0.47350   0.30370   0.01267  Uiso   1.00
H82    H     0.06640   0.53840   0.18040   0.01267  Uiso   1.00
H83    H     0.06420   0.56330   0.31630   0.01267  Uiso   1.00
H84    H     0.03280   0.66980   0.18140   0.01267  Uiso   1.00
H85    H     0.64820   0.81870   0.22110   0.01267  Uiso   1.00
H86    H     0.49930   0.81950   0.25900   0.01267  Uiso   1.00
H87    H     0.52830   0.70680   0.39050   0.01267  Uiso   1.00
H88    H     0.54190   0.50150   0.38040   0.01267  Uiso   1.00
H89    H     0.53680   0.48310   0.24150   0.01267  Uiso   1.00
H90    H     0.68470   0.62960   0.22370   0.01267  Uiso   1.00
H91    H     0.33890   0.39140   0.45070   0.01267  Uiso   1.00
H92    H     0.23690   0.33580   0.48650   0.01267  Uiso   1.00
H93    H     0.23500   0.26540   0.38260   0.01267  Uiso   1.00
H94    H     0.33720   0.32050   0.34630   0.01267  Uiso   1.00
H95    H     0.12960   0.19840   0.41480   0.01267  Uiso   1.00
H96    H     0.06710   0.16460   0.46430   0.01267  Uiso   1.00
H97    H     0.11380   0.14850   0.48190   0.01267  Uiso   1.00
H98    H     0.11530   0.18960   0.57190   0.01267  Uiso   1.00
H99    H     0.06730   0.20630   0.56040   0.01267  Uiso   1.00
H100   H     0.12960   0.25990   0.55150   0.01267  Uiso   1.00
H101   H     0.17210   0.33560   0.34090   0.01267  Uiso   1.00
H102   H     0.15760   0.41430   0.27970   0.01267  Uiso   1.00
H103   H     0.06370   0.39240   0.42550   0.01267  Uiso   1.00
H104   H     0.08320   0.31810   0.48410   0.01267  Uiso   1.00
H105   H     0.26290   0.66380   0.56930   0.01267  Uiso   1.00
H106   H     0.35550   0.73360   0.48330   0.01267  Uiso   1.00
H107   H     0.31520   0.59190   0.45890   0.01267  Uiso   1.00
H108   H     0.22280   0.52650   0.53850   0.01267  Uiso   1.00
H109   H     0.47200   0.75320   0.06640   0.01267  Uiso   1.00
H110   H     0.49910   0.61950   0.06420   0.01267  Uiso   1.00
H111   H     0.63700   0.78580   0.03280   0.01267  Uiso   1.00
H112   H     0.17050   0.13070   0.64820   0.01267  Uiso   1.00
H113   H     0.32020   0.24170   0.49930   0.01267  Uiso   1.00
H114   H     0.17850   0.08120   0.52830   0.01267  Uiso   1.00
H115   H     0.95960   0.07770   0.54190   0.01267  Uiso   1.00
H116   H     0.94630   0.22170   0.53680   0.01267  Uiso   1.00
H117   H     0.94490   0.09160   0.68470   0.01267  Uiso   1.00
H118   H     0.05250   0.21040   0.33890   0.01267  Uiso   1.00
H119   H     0.09890   0.27660   0.23690   0.01267  Uiso   1.00
H120   H     0.03040   0.38240   0.23500   0.01267  Uiso   1.00
H121   H     0.98330   0.31650   0.33720   0.01267  Uiso   1.00
H122   H     0.06880   0.45560   0.12960   0.01267  Uiso   1.00
H123   H     0.09750   0.46860   0.06710   0.01267  Uiso   1.00
H124   H     0.03470   0.40430   0.11380   0.01267  Uiso   1.00
H125   H     0.07430   0.31280   0.11530   0.01267  Uiso   1.00
H126   H     0.13900   0.37230   0.06730   0.01267  Uiso   1.00
H127   H     0.13030   0.31890   0.12960   0.01267  Uiso   1.00
H128   H     0.16350   0.48700   0.17210   0.01267  Uiso   1.00
H129   H     0.25670   0.56270   0.15760   0.01267  Uiso   1.00
H130   H     0.32870   0.51080   0.06370   0.01267  Uiso   1.00
H131   H     0.23490   0.43270   0.08320   0.01267  Uiso   1.00
H132   H     0.40090   0.16780   0.26290   0.01267  Uiso   1.00
H133   H     0.37810   0.16120   0.35550   0.01267  Uiso   1.00
H134   H     0.27670   0.22590   0.31520   0.01267  Uiso   1.00
H135   H     0.30370   0.23870   0.22280   0.01267  Uiso   1.00
H136   H     0.18040   0.24680   0.28120   0.01267  Uiso   1.00
H137   H     0.31630   0.38050   0.12040   0.01267  Uiso   1.00
H138   H     0.18140   0.21420   0.14880   0.01267  Uiso   1.00
H139   H     0.22110   0.86930   0.96020   0.01267  Uiso   1.00
H140   H     0.25900   0.75830   0.92150   0.01267  Uiso   1.00
H141   H     0.39050   0.91880   0.90270   0.01267  Uiso   1.00
H142   H     0.38040   0.92230   0.11810   0.01267  Uiso   1.00
H143   H     0.24150   0.77830   0.27540   0.01267  Uiso   1.00
H144   H     0.22370   0.90840   0.14670   0.01267  Uiso   1.00
H145   H     0.45070   0.78960   0.15790   0.01267  Uiso   1.00
H146   H     0.48650   0.72340   0.17770   0.01267  Uiso   1.00
H147   H     0.38260   0.61760   0.35200   0.01267  Uiso   1.00
H148   H     0.34630   0.68350   0.33320   0.01267  Uiso   1.00
H149   H     0.41480   0.54440   0.38680   0.01267  Uiso   1.00
H150   H     0.46430   0.53140   0.37110   0.01267  Uiso   1.00
H151   H     0.48190   0.59570   0.36960   0.01267  Uiso   1.00
H152   H     0.57190   0.68720   0.23850   0.01267  Uiso   1.00
H153   H     0.56040   0.62770   0.23330   0.01267  Uiso   1.00
H154   H     0.55150   0.68110   0.18860   0.01267  Uiso   1.00
H155   H     0.34090   0.51300   0.32350   0.01267  Uiso   1.00
H156   H     0.27970   0.43730   0.30600   0.01267  Uiso   1.00
H157   H     0.42550   0.48920   0.18210   0.01267  Uiso   1.00
H158   H     0.48410   0.56730   0.19780   0.01267  Uiso   1.00
H159   H     0.56930   0.83220   0.76690   0.01267  Uiso   1.00
H160   H     0.48330   0.83880   0.78310   0.01267  Uiso   1.00
H161   H     0.45890   0.77410   0.94920   0.01267  Uiso   1.00
H162   H     0.53850   0.76130   0.93500   0.01267  Uiso   1.00
H163   H     0.71880   0.53840   0.52800   0.01267  Uiso   1.00
H164   H     0.87960   0.56330   0.50090   0.01267  Uiso   1.00
H165   H     0.85120   0.66980   0.36300   0.01267  Uiso   1.00
H166   H     0.03980   0.81870   0.82950   0.01267  Uiso   1.00
H167   H     0.07850   0.81950   0.67980   0.01267  Uiso   1.00
H168   H     0.09730   0.70680   0.82150   0.01267  Uiso   1.00
H169   H     0.88190   0.50150   0.04040   0.01267  Uiso   1.00
H170   H     0.72460   0.48310   0.05370   0.01267  Uiso   1.00
H171   H     0.85330   0.62960   0.05510   0.01267  Uiso   1.00
H172   H     0.84210   0.39140   0.94750   0.01267  Uiso   1.00
H173   H     0.82230   0.33580   0.90110   0.01267  Uiso   1.00
H174   H     0.64800   0.26540   0.96960   0.01267  Uiso   1.00
H175   H     0.66680   0.32050   0.01670   0.01267  Uiso   1.00
H176   H     0.61320   0.19840   0.93120   0.01267  Uiso   1.00
H177   H     0.62890   0.16460   0.90250   0.01267  Uiso   1.00
H178   H     0.63040   0.14850   0.96530   0.01267  Uiso   1.00
H179   H     0.76150   0.18960   0.92570   0.01267  Uiso   1.00
H180   H     0.76670   0.20630   0.86100   0.01267  Uiso   1.00
H181   H     0.81140   0.25990   0.86970   0.01267  Uiso   1.00
H182   H     0.67650   0.33560   0.83650   0.01267  Uiso   1.00
H183   H     0.69400   0.41430   0.74330   0.01267  Uiso   1.00
H184   H     0.81790   0.39240   0.67130   0.01267  Uiso   1.00
H185   H     0.80220   0.31810   0.76510   0.01267  Uiso   1.00
H186   H     0.23310   0.66380   0.59910   0.01267  Uiso   1.00
H187   H     0.21690   0.73360   0.62190   0.01267  Uiso   1.00
H188   H     0.05080   0.59190   0.72330   0.01267  Uiso   1.00
H189   H     0.06500   0.52650   0.69630   0.01267  Uiso   1.00
H190   H     0.93360   0.46160   0.81960   0.01267  Uiso   1.00
H191   H     0.93580   0.43670   0.68370   0.01267  Uiso   1.00
H192   H     0.96720   0.33020   0.81860   0.01267  Uiso   1.00
H193   H     0.35180   0.18130   0.77890   0.01267  Uiso   1.00
H194   H     0.50070   0.18050   0.74100   0.01267  Uiso   1.00
H195   H     0.47170   0.29320   0.60950   0.01267  Uiso   1.00
H196   H     0.45810   0.49850   0.61960   0.01267  Uiso   1.00
H197   H     0.46320   0.51690   0.75850   0.01267  Uiso   1.00
H198   H     0.31530   0.37040   0.77630   0.01267  Uiso   1.00
H199   H     0.66110   0.60860   0.54930   0.01267  Uiso   1.00
H200   H     0.76310   0.66420   0.51350   0.01267  Uiso   1.00
H201   H     0.76500   0.73460   0.61740   0.01267  Uiso   1.00
H202   H     0.66280   0.67950   0.65370   0.01267  Uiso   1.00
H203   H     0.87040   0.80160   0.58520   0.01267  Uiso   1.00
H204   H     0.93290   0.83540   0.53570   0.01267  Uiso   1.00
H205   H     0.88620   0.85150   0.51810   0.01267  Uiso   1.00
H206   H     0.88470   0.81040   0.42810   0.01267  Uiso   1.00
H207   H     0.93270   0.79370   0.43960   0.01267  Uiso   1.00
H208   H     0.87040   0.74010   0.44850   0.01267  Uiso   1.00
H209   H     0.82790   0.66440   0.65910   0.01267  Uiso   1.00
H210   H     0.84240   0.58570   0.72030   0.01267  Uiso   1.00
H211   H     0.93630   0.60760   0.57450   0.01267  Uiso   1.00
H212   H     0.91680   0.68190   0.51590   0.01267  Uiso   1.00
H213   H     0.73710   0.33620   0.43070   0.01267  Uiso   1.00
H214   H     0.64450   0.26640   0.51670   0.01267  Uiso   1.00
H215   H     0.68480   0.40810   0.54110   0.01267  Uiso   1.00
H216   H     0.77720   0.47350   0.46150   0.01267  Uiso   1.00
C1     C     0.41703   0.15706   0.95291   0.01267  Uiso   1.00
C2     C     0.44132   0.22056   0.95064   0.01267  Uiso   1.00
C3     C     0.50244   0.26060   0.93816   0.01267  Uiso   1.00
C4     C     0.52409   0.31940   0.93291   0.01267  Uiso   1.00
C5     C     0.48589   0.34010   0.94001   0.01267  Uiso   1.00
C6     C     0.42519   0.30023   0.95346   0.01267  Uiso   1.00
C7     C     0.40340   0.24075   0.95849   0.01267  Uiso   1.00
C8     C     0.38543   0.32476   0.95653   0.01267  Uiso   1.00
C9     C     0.89873   0.95960   0.37027   0.01267  Uiso   1.00
C10    C     0.83585   0.90280   0.40595   0.01267  Uiso   1.00
C11    C     0.80862   0.86063   0.38795   0.01267  Uiso   1.00
C12    C     0.75111   0.80610   0.42299   0.01267  Uiso   1.00
C13    C     0.71884   0.79480   0.47676   0.01267  Uiso   1.00
C14    C     0.74531   0.83800   0.49369   0.01267  Uiso   1.00
C15    C     0.80342   0.89070   0.45928   0.01267  Uiso   1.00
C16    C     0.71600   0.82710   0.54950   0.01267  Uiso   1.00
C17    C     0.03878   0.98010   0.35112   0.01267  Uiso   1.00
C18    C     0.04818   0.92580   0.38082   0.01267  Uiso   1.00
C19    C     0.04377   0.90100   0.43963   0.01267  Uiso   1.00
C20    C     0.04440   0.84580   0.47040   0.01267  Uiso   1.00
C21    C     0.05238   0.81540   0.44242   0.01267  Uiso   1.00
C22    C     0.05404   0.89371   0.35387   0.01267  Uiso   1.00
C23    C     0.03160   0.81380   0.53360   0.01267  Uiso   1.00
C24    C     0.01400   0.78280   0.58660   0.01267  Uiso   1.00
C25    C     0.98723   0.74350   0.65007   0.01267  Uiso   1.00
C26    C     0.95198   0.75500   0.68182   0.01267  Uiso   1.00
C27    C     0.92463   0.71550   0.74287   0.01267  Uiso   1.00
C28    C     0.93104   0.66380   0.77576   0.01267  Uiso   1.00
C29    C     0.96539   0.65240   0.74421   0.01267  Uiso   1.00
C30    C     0.99340   0.69170   0.68270   0.01267  Uiso   1.00
C31    C     0.92660   0.56460   0.89100   0.01267  Uiso   1.00
C32    C     0.88600   0.65700   0.89060   0.01267  Uiso   1.00
C33    C     0.81124   0.54580   0.87376   0.01267  Uiso   1.00
C34    C     0.80300   0.50760   0.85040   0.01267  Uiso   1.00
C35    C     0.74720   0.46190   0.85910   0.01267  Uiso   1.00
C36    C     0.70460   0.49370   0.91450   0.01267  Uiso   1.00
C37    C     0.76060   0.53940   0.90380   0.01267  Uiso   1.00
C38    C     0.58660   0.36270   0.91870   0.01267  Uiso   1.00
C39    C     0.63680   0.40330   0.90590   0.01267  Uiso   1.00
C40    C     0.69722   0.45310   0.89288   0.01267  Uiso   1.00
C41    C     0.05751   0.80100   0.35809   0.01267  Uiso   1.00
C42    C     0.05837   0.84040   0.38383   0.01267  Uiso   1.00
C43    C     0.69671   0.81890   0.59679   0.01267  Uiso   1.00
C44    C     0.67533   0.80600   0.65507   0.01267  Uiso   1.00
C45    C     0.63570   0.77730   0.77300   0.01267  Uiso   1.00
C46    C     0.61950   0.81440   0.72910   0.01267  Uiso   1.00
C47    C     0.63730   0.82210   0.67140   0.01267  Uiso   1.00
C48    C     0.69550   0.78350   0.69460   0.01267  Uiso   1.00
C49    C     0.67660   0.77260   0.75300   0.01267  Uiso   1.00
C50    C     0.72517   0.75830   0.40553   0.01267  Uiso   1.00
C51    C     0.89003   0.84294   0.74003   0.01267  Uiso   1.00
C52    C     0.82880   0.77944   0.77924   0.01267  Uiso   1.00
C53    C     0.80124   0.73940   0.75816   0.01267  Uiso   1.00
C54    C     0.74769   0.68060   0.79531   0.01267  Uiso   1.00
C55    C     0.71989   0.65990   0.85421   0.01267  Uiso   1.00
C56    C     0.74631   0.69977   0.87504   0.01267  Uiso   1.00
C57    C     0.80076   0.75925   0.83735   0.01267  Uiso   1.00
C58    C     0.71871   0.67524   0.93933   0.01267  Uiso   1.00
C59    C     0.67013   0.04040   0.06087   0.01267  Uiso   1.00
C60    C     0.69125   0.09720   0.06695   0.01267  Uiso   1.00
C61    C     0.75142   0.13937   0.05201   0.01267  Uiso   1.00
C62    C     0.77091   0.19390   0.05499   0.01267  Uiso   1.00
C63    C     0.72844   0.20520   0.07596   0.01267  Uiso   1.00
C64    C     0.66831   0.16200   0.09269   0.01267  Uiso   1.00
C65    C     0.65002   0.10930   0.08728   0.01267  Uiso   1.00
C66    C     0.62340   0.17290   0.11110   0.01267  Uiso   1.00
C67    C     0.66878   0.01990   0.94132   0.01267  Uiso   1.00
C68    C     0.69338   0.07420   0.87762   0.01267  Uiso   1.00
C69    C     0.65937   0.09900   0.85723   0.01267  Uiso   1.00
C70    C     0.68380   0.15420   0.80140   0.01267  Uiso   1.00
C71    C     0.74218   0.18460   0.76302   0.01267  Uiso   1.00
C72    C     0.75242   0.10629   0.83967   0.01267  Uiso   1.00
C73    C     0.65260   0.18620   0.78220   0.01267  Uiso   1.00
C74    C     0.63060   0.21720   0.76880   0.01267  Uiso   1.00
C75    C     0.60643   0.25650   0.75627   0.01267  Uiso   1.00
C76    C     0.56318   0.24500   0.80302   0.01267  Uiso   1.00
C77    C     0.54163   0.28450   0.79087   0.01267  Uiso   1.00
C78    C     0.56044   0.33620   0.73276   0.01267  Uiso   1.00
C79    C     0.60339   0.34760   0.68701   0.01267  Uiso   1.00
C80    C     0.62560   0.30830   0.69830   0.01267  Uiso   1.00
C81    C     0.54440   0.43540   0.63800   0.01267  Uiso   1.00
C82    C     0.45240   0.34300   0.77100   0.01267  Uiso   1.00
C83    C     0.58044   0.45420   0.73456   0.01267  Uiso   1.00
C84    C     0.64200   0.49240   0.70460   0.01267  Uiso   1.00
C85    C     0.67900   0.53810   0.71470   0.01267  Uiso   1.00
C86    C     0.59180   0.50630   0.78910   0.01267  Uiso   1.00
C87    C     0.55680   0.46060   0.77880   0.01267  Uiso   1.00
C88    C     0.71860   0.63730   0.77610   0.01267  Uiso   1.00
C89    C     0.69080   0.59670   0.76650   0.01267  Uiso   1.00
C90    C     0.65402   0.54690   0.75588   0.01267  Uiso   1.00
C91    C     0.84091   0.19900   0.74349   0.01267  Uiso   1.00
C92    C     0.77577   0.15960   0.78203   0.01267  Uiso   1.00
C93    C     0.58431   0.18110   0.12219   0.01267  Uiso   1.00
C94    C     0.53893   0.19400   0.13067   0.01267  Uiso   1.00
C95    C     0.44970   0.22270   0.14160   0.01267  Uiso   1.00
C96    C     0.45650   0.18560   0.19490   0.01267  Uiso   1.00
C97    C     0.50650   0.17790   0.18480   0.01267  Uiso   1.00
C98    C     0.52190   0.21650   0.08800   0.01267  Uiso   1.00
C99    C     0.47440   0.22740   0.09600   0.01267  Uiso   1.00
C100   C     0.83617   0.24170   0.03313   0.01267  Uiso   1.00
C101   C     0.25997   0.36994   0.58297   0.01267  Uiso   1.00
C102   C     0.22076   0.39196   0.55868   0.01267  Uiso   1.00
C103   C     0.24184   0.44060   0.49756   0.01267  Uiso   1.00
C104   C     0.20469   0.45700   0.47591   0.01267  Uiso   1.00
C105   C     0.14579   0.42590   0.51411   0.01267  Uiso   1.00
C106   C     0.12496   0.37865   0.57481   0.01267  Uiso   1.00
C107   C     0.16265   0.36189   0.59660   0.01267  Uiso   1.00
C108   C     0.06067   0.34196   0.61457   0.01267  Uiso   1.00
C109   C     0.93913   0.26900   0.10127   0.01267  Uiso   1.00
C110   C     0.93305   0.24180   0.16415   0.01267  Uiso   1.00
C111   C     0.94799   0.19657   0.19138   0.01267  Uiso   1.00
C112   C     0.94501   0.17410   0.24889   0.01267  Uiso   1.00
C113   C     0.92404   0.19560   0.28116   0.01267  Uiso   1.00
C114   C     0.90731   0.23900   0.25469   0.01267  Uiso   1.00
C115   C     0.91272   0.26270   0.19658   0.01267  Uiso   1.00
C116   C     0.88890   0.26550   0.28400   0.01267  Uiso   1.00
C117   C     0.05868   0.38990   0.96122   0.01267  Uiso   1.00
C118   C     0.12238   0.42900   0.95182   0.01267  Uiso   1.00
C119   C     0.14277   0.48340   0.95623   0.01267  Uiso   1.00
C120   C     0.19860   0.51480   0.95560   0.01267  Uiso   1.00
C121   C     0.23698   0.49480   0.94762   0.01267  Uiso   1.00
C122   C     0.16033   0.40791   0.94596   0.01267  Uiso   1.00
C123   C     0.21780   0.56520   0.96840   0.01267  Uiso   1.00
C124   C     0.23120   0.60060   0.98600   0.01267  Uiso   1.00
C125   C     0.24373   0.63730   0.01277   0.01267  Uiso   1.00
C126   C     0.19698   0.63380   0.04802   0.01267  Uiso   1.00
C127   C     0.20913   0.66750   0.07537   0.01267  Uiso   1.00
C128   C     0.26724   0.70680   0.06896   0.01267  Uiso   1.00
C129   C     0.31299   0.70960   0.03461   0.01267  Uiso   1.00
C130   C     0.30170   0.67610   0.00660   0.01267  Uiso   1.00
C131   C     0.36200   0.81760   0.07340   0.01267  Uiso   1.00
C132   C     0.22900   0.77660   0.11400   0.01267  Uiso   1.00
C133   C     0.26544   0.68500   0.18876   0.01267  Uiso   1.00
C134   C     0.29540   0.65340   0.19700   0.01267  Uiso   1.00
C135   C     0.28530   0.60630   0.25280   0.01267  Uiso   1.00
C136   C     0.21090   0.61910   0.29540   0.01267  Uiso   1.00
C137   C     0.22120   0.66440   0.23940   0.01267  Uiso   1.00
C138   C     0.22390   0.50530   0.41340   0.01267  Uiso   1.00
C139   C     0.23350   0.54270   0.36320   0.01267  Uiso   1.00
C140   C     0.24412   0.59010   0.30278   0.01267  Uiso   1.00
C141   C     0.25651   0.41560   0.94249   0.01267  Uiso   1.00
C142   C     0.21797   0.44220   0.94163   0.01267  Uiso   1.00
C143   C     0.87781   0.29350   0.30329   0.01267  Uiso   1.00
C144   C     0.86933   0.33040   0.32467   0.01267  Uiso   1.00
C145   C     0.85840   0.40870   0.36430   0.01267  Uiso   1.00
C146   C     0.80510   0.34860   0.38050   0.01267  Uiso   1.00
C147   C     0.81520   0.30870   0.36270   0.01267  Uiso   1.00
C148   C     0.91200   0.39010   0.30450   0.01267  Uiso   1.00
C149   C     0.90400   0.42960   0.32340   0.01267  Uiso   1.00
C150   C     0.96687   0.13070   0.27483   0.01267  Uiso   1.00
C151   C     0.04709   0.63006   0.10997   0.01267  Uiso   1.00
C152   C     0.04936   0.60804   0.17120   0.01267  Uiso   1.00
C153   C     0.06184   0.55940   0.19876   0.01267  Uiso   1.00
C154   C     0.06709   0.54300   0.25231   0.01267  Uiso   1.00
C155   C     0.05999   0.57410   0.28011   0.01267  Uiso   1.00
C156   C     0.04654   0.62135   0.25369   0.01267  Uiso   1.00
C157   C     0.04151   0.63811   0.19924   0.01267  Uiso   1.00
C158   C     0.04347   0.65804   0.28129   0.01267  Uiso   1.00
C159   C     0.62973   0.73100   0.32987   0.01267  Uiso   1.00
C160   C     0.59405   0.75820   0.30875   0.01267  Uiso   1.00
C161   C     0.61205   0.80343   0.24858   0.01267  Uiso   1.00
C162   C     0.57701   0.82590   0.22909   0.01267  Uiso   1.00
C163   C     0.52324   0.80440   0.27156   0.01267  Uiso   1.00
C164   C     0.50631   0.76100   0.33169   0.01267  Uiso   1.00
C165   C     0.54072   0.73730   0.34998   0.01267  Uiso   1.00
C166   C     0.45050   0.73450   0.37660   0.01267  Uiso   1.00
C167   C     0.64888   0.61010   0.33122   0.01267  Uiso   1.00
C168   C     0.61918   0.57100   0.30662   0.01267  Uiso   1.00
C169   C     0.56037   0.51660   0.34063   0.01267  Uiso   1.00
C170   C     0.52960   0.48520   0.31620   0.01267  Uiso   1.00
C171   C     0.55758   0.50520   0.25782   0.01267  Uiso   1.00
C172   C     0.64613   0.59209   0.24758   0.01267  Uiso   1.00
C173   C     0.46640   0.43480   0.34740   0.01267  Uiso   1.00
C174   C     0.41340   0.39940   0.36940   0.01267  Uiso   1.00
C175   C     0.34993   0.36270   0.39357   0.01267  Uiso   1.00
C176   C     0.31818   0.36620   0.43682   0.01267  Uiso   1.00
C177   C     0.25713   0.33250   0.45837   0.01267  Uiso   1.00
C178   C     0.22424   0.29320   0.43956   0.01267  Uiso   1.00
C179   C     0.25579   0.29040   0.39661   0.01267  Uiso   1.00
C180   C     0.31730   0.32390   0.37440   0.01267  Uiso   1.00
C181   C     0.10900   0.18240   0.45560   0.01267  Uiso   1.00
C182   C     0.10940   0.22340   0.54760   0.01267  Uiso   1.00
C183   C     0.12624   0.31500   0.41956   0.01267  Uiso   1.00
C184   C     0.14960   0.34660   0.35800   0.01267  Uiso   1.00
C185   C     0.14090   0.39370   0.32100   0.01267  Uiso   1.00
C186   C     0.08550   0.38090   0.40820   0.01267  Uiso   1.00
C187   C     0.09620   0.33560   0.44320   0.01267  Uiso   1.00
C188   C     0.08130   0.49470   0.28140   0.01267  Uiso   1.00
C189   C     0.09410   0.45730   0.30920   0.01267  Uiso   1.00
C190   C     0.10712   0.40990   0.34598   0.01267  Uiso   1.00
C191   C     0.64191   0.58440   0.15909   0.01267  Uiso   1.00
C192   C     0.61617   0.55780   0.22423   0.01267  Uiso   1.00
C193   C     0.40321   0.70650   0.41569   0.01267  Uiso   1.00
C194   C     0.34493   0.66960   0.46107   0.01267  Uiso   1.00
C195   C     0.22700   0.59130   0.55030   0.01267  Uiso   1.00
C196   C     0.27090   0.65140   0.54350   0.01267  Uiso   1.00
C197   C     0.32860   0.69130   0.49350   0.01267  Uiso   1.00
C198   C     0.30540   0.60990   0.47810   0.01267  Uiso   1.00
C199   C     0.24700   0.57040   0.52560   0.01267  Uiso   1.00
C200   C     0.59447   0.86930   0.16383   0.01267  Uiso   1.00
C201   C     0.58297   0.84294   0.04709   0.01267  Uiso   1.00
C202   C     0.55868   0.77944   0.04936   0.01267  Uiso   1.00
C203   C     0.49756   0.73940   0.06184   0.01267  Uiso   1.00
C204   C     0.47591   0.68060   0.06709   0.01267  Uiso   1.00
C205   C     0.51411   0.65990   0.05999   0.01267  Uiso   1.00
C206   C     0.57481   0.69977   0.04654   0.01267  Uiso   1.00
C207   C     0.59660   0.75925   0.04151   0.01267  Uiso   1.00
C208   C     0.61457   0.67524   0.04347   0.01267  Uiso   1.00
C209   C     0.10127   0.04040   0.62973   0.01267  Uiso   1.00
C210   C     0.16415   0.09720   0.59405   0.01267  Uiso   1.00
C211   C     0.19138   0.13937   0.61205   0.01267  Uiso   1.00
C212   C     0.24889   0.19390   0.57701   0.01267  Uiso   1.00
C213   C     0.28116   0.20520   0.52324   0.01267  Uiso   1.00
C214   C     0.25469   0.16200   0.50631   0.01267  Uiso   1.00
C215   C     0.19658   0.10930   0.54072   0.01267  Uiso   1.00
C216   C     0.28400   0.17290   0.45050   0.01267  Uiso   1.00
C217   C     0.96122   0.01990   0.64888   0.01267  Uiso   1.00
C218   C     0.95182   0.07420   0.61918   0.01267  Uiso   1.00
C219   C     0.95623   0.09900   0.56037   0.01267  Uiso   1.00
C220   C     0.95560   0.15420   0.52960   0.01267  Uiso   1.00
C221   C     0.94762   0.18460   0.55758   0.01267  Uiso   1.00
C222   C     0.94596   0.10629   0.64613   0.01267  Uiso   1.00
C223   C     0.96840   0.18620   0.46640   0.01267  Uiso   1.00
C224   C     0.98600   0.21720   0.41340   0.01267  Uiso   1.00
C225   C     0.01277   0.25650   0.34993   0.01267  Uiso   1.00
C226   C     0.04802   0.24500   0.31818   0.01267  Uiso   1.00
C227   C     0.07537   0.28450   0.25713   0.01267  Uiso   1.00
C228   C     0.06896   0.33620   0.22424   0.01267  Uiso   1.00
C229   C     0.03461   0.34760   0.25579   0.01267  Uiso   1.00
C230   C     0.00660   0.30830   0.31730   0.01267  Uiso   1.00
C231   C     0.07340   0.43540   0.10900   0.01267  Uiso   1.00
C232   C     0.11400   0.34300   0.10940   0.01267  Uiso   1.00
C233   C     0.18876   0.45420   0.12624   0.01267  Uiso   1.00
C234   C     0.19700   0.49240   0.14960   0.01267  Uiso   1.00
C235   C     0.25280   0.53810   0.14090   0.01267  Uiso   1.00
C236   C     0.29540   0.50630   0.08550   0.01267  Uiso   1.00
C237   C     0.23940   0.46060   0.09620   0.01267  Uiso   1.00
C238   C     0.41340   0.63730   0.08130   0.01267  Uiso   1.00
C239   C     0.36320   0.59670   0.09410   0.01267  Uiso   1.00
C240   C     0.30278   0.54690   0.10712   0.01267  Uiso   1.00
C241   C     0.94249   0.19900   0.64191   0.01267  Uiso   1.00
C242   C     0.94163   0.15960   0.61617   0.01267  Uiso   1.00
C243   C     0.30329   0.18110   0.40321   0.01267  Uiso   1.00
C244   C     0.32467   0.19400   0.34493   0.01267  Uiso   1.00
C245   C     0.36430   0.22270   0.22700   0.01267  Uiso   1.00
C246   C     0.38050   0.18560   0.27090   0.01267  Uiso   1.00
C247   C     0.36270   0.17790   0.32860   0.01267  Uiso   1.00
C248   C     0.30450   0.21650   0.30540   0.01267  Uiso   1.00
C249   C     0.32340   0.22740   0.24700   0.01267  Uiso   1.00
C250   C     0.27483   0.24170   0.59447   0.01267  Uiso   1.00
C251   C     0.10997   0.15706   0.25997   0.01267  Uiso   1.00
C252   C     0.17120   0.22056   0.22076   0.01267  Uiso   1.00
C253   C     0.19876   0.26060   0.24184   0.01267  Uiso   1.00
C254   C     0.25231   0.31940   0.20469   0.01267  Uiso   1.00
C255   C     0.28011   0.34010   0.14579   0.01267  Uiso   1.00
C256   C     0.25369   0.30023   0.12496   0.01267  Uiso   1.00
C257   C     0.19924   0.24075   0.16265   0.01267  Uiso   1.00
C258   C     0.28129   0.32476   0.06067   0.01267  Uiso   1.00
C259   C     0.32987   0.95960   0.93913   0.01267  Uiso   1.00
C260   C     0.30875   0.90280   0.93305   0.01267  Uiso   1.00
C261   C     0.24858   0.86063   0.94799   0.01267  Uiso   1.00
C262   C     0.22909   0.80610   0.94501   0.01267  Uiso   1.00
C263   C     0.27156   0.79480   0.92404   0.01267  Uiso   1.00
C264   C     0.33169   0.83800   0.90731   0.01267  Uiso   1.00
C265   C     0.34998   0.89070   0.91272   0.01267  Uiso   1.00
C266   C     0.37660   0.82710   0.88890   0.01267  Uiso   1.00
C267   C     0.33122   0.98010   0.05868   0.01267  Uiso   1.00
C268   C     0.30662   0.92580   0.12238   0.01267  Uiso   1.00
C269   C     0.34063   0.90100   0.14277   0.01267  Uiso   1.00
C270   C     0.31620   0.84580   0.19860   0.01267  Uiso   1.00
C271   C     0.25782   0.81540   0.23698   0.01267  Uiso   1.00
C272   C     0.24758   0.89371   0.16033   0.01267  Uiso   1.00
C273   C     0.34740   0.81380   0.21780   0.01267  Uiso   1.00
C274   C     0.36940   0.78280   0.23120   0.01267  Uiso   1.00
C275   C     0.39357   0.74350   0.24373   0.01267  Uiso   1.00
C276   C     0.43682   0.75500   0.19698   0.01267  Uiso   1.00
C277   C     0.45837   0.71550   0.20913   0.01267  Uiso   1.00
C278   C     0.43956   0.66380   0.26724   0.01267  Uiso   1.00
C279   C     0.39661   0.65240   0.31299   0.01267  Uiso   1.00
C280   C     0.37440   0.69170   0.30170   0.01267  Uiso   1.00
C281   C     0.45560   0.56460   0.36200   0.01267  Uiso   1.00
C282   C     0.54760   0.65700   0.22900   0.01267  Uiso   1.00
C283   C     0.41956   0.54580   0.26544   0.01267  Uiso   1.00
C284   C     0.35800   0.50760   0.29540   0.01267  Uiso   1.00
C285   C     0.32100   0.46190   0.28530   0.01267  Uiso   1.00
C286   C     0.40820   0.49370   0.21090   0.01267  Uiso   1.00
C287   C     0.44320   0.53940   0.22120   0.01267  Uiso   1.00
C288   C     0.28140   0.36270   0.22390   0.01267  Uiso   1.00
C289   C     0.30920   0.40330   0.23350   0.01267  Uiso   1.00
C290   C     0.34598   0.45310   0.24412   0.01267  Uiso   1.00
C291   C     0.15909   0.80100   0.25651   0.01267  Uiso   1.00
C292   C     0.22423   0.84040   0.21797   0.01267  Uiso   1.00
C293   C     0.41569   0.81890   0.87781   0.01267  Uiso   1.00
C294   C     0.46107   0.80600   0.86933   0.01267  Uiso   1.00
C295   C     0.55030   0.77730   0.85840   0.01267  Uiso   1.00
C296   C     0.54350   0.81440   0.80510   0.01267  Uiso   1.00
C297   C     0.49350   0.82210   0.81520   0.01267  Uiso   1.00
C298   C     0.47810   0.78350   0.91200   0.01267  Uiso   1.00
C299   C     0.52560   0.77260   0.90400   0.01267  Uiso   1.00
C300   C     0.16383   0.75830   0.96687   0.01267  Uiso   1.00
C301   C     0.74003   0.63006   0.41703   0.01267  Uiso   1.00
C302   C     0.77924   0.60804   0.44132   0.01267  Uiso   1.00
C303   C     0.75816   0.55940   0.50244   0.01267  Uiso   1.00
C304   C     0.79531   0.54300   0.52409   0.01267  Uiso   1.00
C305   C     0.85421   0.57410   0.48589   0.01267  Uiso   1.00
C306   C     0.87504   0.62135   0.42519   0.01267  Uiso   1.00
C307   C     0.83735   0.63811   0.40340   0.01267  Uiso   1.00
C308   C     0.93933   0.65804   0.38543   0.01267  Uiso   1.00
C309   C     0.06087   0.73100   0.89873   0.01267  Uiso   1.00
C310   C     0.06695   0.75820   0.83585   0.01267  Uiso   1.00
C311   C     0.05201   0.80343   0.80862   0.01267  Uiso   1.00
C312   C     0.05499   0.82590   0.75111   0.01267  Uiso   1.00
C313   C     0.07596   0.80440   0.71884   0.01267  Uiso   1.00
C314   C     0.09269   0.76100   0.74531   0.01267  Uiso   1.00
C315   C     0.08728   0.73730   0.80342   0.01267  Uiso   1.00
C316   C     0.11110   0.73450   0.71600   0.01267  Uiso   1.00
C317   C     0.94132   0.61010   0.03878   0.01267  Uiso   1.00
C318   C     0.87762   0.57100   0.04818   0.01267  Uiso   1.00
C319   C     0.85723   0.51660   0.04377   0.01267  Uiso   1.00
C320   C     0.80140   0.48520   0.04440   0.01267  Uiso   1.00
C321   C     0.76302   0.50520   0.05238   0.01267  Uiso   1.00
C322   C     0.83967   0.59209   0.05404   0.01267  Uiso   1.00
C323   C     0.78220   0.43480   0.03160   0.01267  Uiso   1.00
C324   C     0.76880   0.39940   0.01400   0.01267  Uiso   1.00
C325   C     0.75627   0.36270   0.98723   0.01267  Uiso   1.00
C326   C     0.80302   0.36620   0.95198   0.01267  Uiso   1.00
C327   C     0.79087   0.33250   0.92463   0.01267  Uiso   1.00
C328   C     0.73276   0.29320   0.93104   0.01267  Uiso   1.00
C329   C     0.68701   0.29040   0.96539   0.01267  Uiso   1.00
C330   C     0.69830   0.32390   0.99340   0.01267  Uiso   1.00
C331   C     0.63800   0.18240   0.92660   0.01267  Uiso   1.00
C332   C     0.77100   0.22340   0.88600   0.01267  Uiso   1.00
C333   C     0.73456   0.31500   0.81124   0.01267  Uiso   1.00
C334   C     0.70460   0.34660   0.80300   0.01267  Uiso   1.00
C335   C     0.71470   0.39370   0.74720   0.01267  Uiso   1.00
C336   C     0.78910   0.38090   0.70460   0.01267  Uiso   1.00
C337   C     0.77880   0.33560   0.76060   0.01267  Uiso   1.00
C338   C     0.77610   0.49470   0.58660   0.01267  Uiso   1.00
C339   C     0.76650   0.45730   0.63680   0.01267  Uiso   1.00
C340   C     0.75588   0.40990   0.69722   0.01267  Uiso   1.00
C341   C     0.74349   0.58440   0.05751   0.01267  Uiso   1.00
C342   C     0.78203   0.55780   0.05837   0.01267  Uiso   1.00
C343   C     0.12219   0.70650   0.69671   0.01267  Uiso   1.00
C344   C     0.13067   0.66960   0.67533   0.01267  Uiso   1.00
C345   C     0.14160   0.59130   0.63570   0.01267  Uiso   1.00
C346   C     0.19490   0.65140   0.61950   0.01267  Uiso   1.00
C347   C     0.18480   0.69130   0.63730   0.01267  Uiso   1.00
C348   C     0.08800   0.60990   0.69550   0.01267  Uiso   1.00
C349   C     0.09600   0.57040   0.67660   0.01267  Uiso   1.00
C350   C     0.03313   0.86930   0.72517   0.01267  Uiso   1.00
C351   C     0.95291   0.36994   0.89003   0.01267  Uiso   1.00
C352   C     0.95064   0.39196   0.82880   0.01267  Uiso   1.00
C353   C     0.93816   0.44060   0.80124   0.01267  Uiso   1.00
C354   C     0.93291   0.45700   0.74769   0.01267  Uiso   1.00
C355   C     0.94001   0.42590   0.71989   0.01267  Uiso   1.00
C356   C     0.95346   0.37865   0.74631   0.01267  Uiso   1.00
C357   C     0.95849   0.36189   0.80076   0.01267  Uiso   1.00
C358   C     0.95653   0.34196   0.71871   0.01267  Uiso   1.00
C359   C     0.37027   0.26900   0.67013   0.01267  Uiso   1.00
C360   C     0.40595   0.24180   0.69125   0.01267  Uiso   1.00
C361   C     0.38795   0.19657   0.75142   0.01267  Uiso   1.00
C362   C     0.42299   0.17410   0.77091   0.01267  Uiso   1.00
C363   C     0.47676   0.19560   0.72844   0.01267  Uiso   1.00
C364   C     0.49369   0.23900   0.66831   0.01267  Uiso   1.00
C365   C     0.45928   0.26270   0.65002   0.01267  Uiso   1.00
C366   C     0.54950   0.26550   0.62340   0.01267  Uiso   1.00
C367   C     0.35112   0.38990   0.66878   0.01267  Uiso   1.00
C368   C     0.38082   0.42900   0.69338   0.01267  Uiso   1.00
C369   C     0.43963   0.48340   0.65937   0.01267  Uiso   1.00
C370   C     0.47040   0.51480   0.68380   0.01267  Uiso   1.00
C371   C     0.44242   0.49480   0.74218   0.01267  Uiso   1.00
C372   C     0.35387   0.40791   0.75242   0.01267  Uiso   1.00
C373   C     0.53360   0.56520   0.65260   0.01267  Uiso   1.00
C374   C     0.58660   0.60060   0.63060   0.01267  Uiso   1.00
C375   C     0.65007   0.63730   0.60643   0.01267  Uiso   1.00
C376   C     0.68182   0.63380   0.56318   0.01267  Uiso   1.00
C377   C     0.74287   0.66750   0.54163   0.01267  Uiso   1.00
C378   C     0.77576   0.70680   0.56044   0.01267  Uiso   1.00
C379   C     0.74421   0.70960   0.60339   0.01267  Uiso   1.00
C380   C     0.68270   0.67610   0.62560   0.01267  Uiso   1.00
C381   C     0.89100   0.81760   0.54440   0.01267  Uiso   1.00
C382   C     0.89060   0.77660   0.45240   0.01267  Uiso   1.00
C383   C     0.87376   0.68500   0.58044   0.01267  Uiso   1.00
C384   C     0.85040   0.65340   0.64200   0.01267  Uiso   1.00
C385   C     0.85910   0.60630   0.67900   0.01267  Uiso   1.00
C386   C     0.91450   0.61910   0.59180   0.01267  Uiso   1.00
C387   C     0.90380   0.66440   0.55680   0.01267  Uiso   1.00
C388   C     0.91870   0.50530   0.71860   0.01267  Uiso   1.00
C389   C     0.90590   0.54270   0.69080   0.01267  Uiso   1.00
C390   C     0.89288   0.59010   0.65402   0.01267  Uiso   1.00
C391   C     0.35809   0.41560   0.84091   0.01267  Uiso   1.00
C392   C     0.38383   0.44220   0.77577   0.01267  Uiso   1.00
C393   C     0.59679   0.29350   0.58431   0.01267  Uiso   1.00
C394   C     0.65507   0.33040   0.53893   0.01267  Uiso   1.00
C395   C     0.77300   0.40870   0.44970   0.01267  Uiso   1.00
C396   C     0.72910   0.34860   0.45650   0.01267  Uiso   1.00
C397   C     0.67140   0.30870   0.50650   0.01267  Uiso   1.00
C398   C     0.69460   0.39010   0.52190   0.01267  Uiso   1.00
C399   C     0.75300   0.42960   0.47440   0.01267  Uiso   1.00
C400   C     0.40553   0.13070   0.83617   0.01267  Uiso   1.00
C401   C     0.57630   0.67050   0.90580   0.01267  Uiso   1.00
C402   C     0.67180   0.80570   0.86610   0.01267  Uiso   1.00
C403   C     0.42370   0.32950   0.09420   0.01267  Uiso   1.00
C404   C     0.32820   0.19430   0.13390   0.01267  Uiso   1.00
C405   C     0.90580   0.48210   0.42370   0.01267  Uiso   1.00
C406   C     0.86610   0.53790   0.32820   0.01267  Uiso   1.00
C407   C     0.09420   0.51790   0.57630   0.01267  Uiso   1.00
C408   C     0.13390   0.46210   0.67180   0.01267  Uiso   1.00
O1     O     0.36259   0.12705   0.96294   0.01267  Uiso   1.00
O2     O     0.45289   0.14169   0.94276   0.01267  Uiso   1.00
O3     O     0.92288   0.98603   0.39615   0.01267  Uiso   1.00
O4     O     0.92399   0.97631   0.31742   0.01267  Uiso   1.00
O5     O     0.33191   0.28749   0.96574   0.01267  Uiso   1.00
O6     O     0.40810   0.37978   0.94998   0.01267  Uiso   1.00
O7     O     0.06470   0.75512   0.38678   0.01267  Uiso   1.00
O8     O     0.04959   0.81640   0.31037   0.01267  Uiso   1.00
O9     O     0.03479   0.00671   0.37820   0.01267  Uiso   1.00
O10    O     0.03305   0.99217   0.30234   0.01267  Uiso   1.00
O11    O     0.67539   0.70574   0.44105   0.01267  Uiso   1.00
O12    O     0.75673   0.77645   0.35402   0.01267  Uiso   1.00
O13    O     0.91001   0.87295   0.76446   0.01267  Uiso   1.00
O14    O     0.91555   0.85831   0.68880   0.01267  Uiso   1.00
O15    O     0.61782   0.01397   0.06315   0.01267  Uiso   1.00
O16    O     0.70627   0.02369   0.05232   0.01267  Uiso   1.00
O17    O     0.74677   0.71251   0.95558   0.01267  Uiso   1.00
O18    O     0.67024   0.62022   0.97168   0.01267  Uiso   1.00
O19    O     0.85810   0.24488   0.69042   0.01267  Uiso   1.00
O20    O     0.87323   0.18360   0.76681   0.01267  Uiso   1.00
O21    O     0.61509   0.99329   0.97192   0.01267  Uiso   1.00
O22    O     0.70549   0.00783   0.95912   0.01267  Uiso   1.00
O23    O     0.85321   0.29426   0.03035   0.01267  Uiso   1.00
O24    O     0.86953   0.22355   0.01972   0.01267  Uiso   1.00
O25    O     0.23554   0.32553   0.63741   0.01267  Uiso   1.00
O26    O     0.31120   0.39565   0.54711   0.01267  Uiso   1.00
O27    O     0.93685   0.31903   0.07712   0.01267  Uiso   1.00
O28    O     0.94768   0.24141   0.07601   0.01267  Uiso   1.00
O29    O     0.04442   0.29765   0.66809   0.01267  Uiso   1.00
O30    O     0.02832   0.35808   0.59190   0.01267  Uiso   1.00
O31    O     0.30958   0.45148   0.93530   0.01267  Uiso   1.00
O32    O     0.23319   0.35996   0.95041   0.01267  Uiso   1.00
O33    O     0.02808   0.41299   0.96521   0.01267  Uiso   1.00
O34    O     0.04088   0.33539   0.96695   0.01267  Uiso   1.00
O35    O     0.96965   0.11644   0.32461   0.01267  Uiso   1.00
O36    O     0.98028   0.11075   0.24327   0.01267  Uiso   1.00
O37    O     0.03706   0.67447   0.08999   0.01267  Uiso   1.00
O38    O     0.05724   0.60435   0.08445   0.01267  Uiso   1.00
O39    O     0.60385   0.68097   0.38218   0.01267  Uiso   1.00
O40    O     0.68258   0.75859   0.29373   0.01267  Uiso   1.00
O41    O     0.03426   0.70235   0.25323   0.01267  Uiso   1.00
O42    O     0.05002   0.64192   0.32976   0.01267  Uiso   1.00
O43    O     0.61322   0.54852   0.14190   0.01267  Uiso   1.00
O44    O     0.68963   0.64004   0.12677   0.01267  Uiso   1.00
O45    O     0.62180   0.58701   0.38491   0.01267  Uiso   1.00
O46    O     0.69766   0.66461   0.29451   0.01267  Uiso   1.00
O47    O     0.55895   0.88356   0.14679   0.01267  Uiso   1.00
O48    O     0.64598   0.88925   0.13047   0.01267  Uiso   1.00
O49    O     0.63741   0.87295   0.03706   0.01267  Uiso   1.00
O50    O     0.54711   0.85831   0.05724   0.01267  Uiso   1.00
O51    O     0.07712   0.01397   0.60385   0.01267  Uiso   1.00
O52    O     0.07601   0.02369   0.68258   0.01267  Uiso   1.00
O53    O     0.66809   0.71251   0.03426   0.01267  Uiso   1.00
O54    O     0.59190   0.62022   0.05002   0.01267  Uiso   1.00
O55    O     0.93530   0.24488   0.61322   0.01267  Uiso   1.00
O56    O     0.95041   0.18360   0.68963   0.01267  Uiso   1.00
O57    O     0.96521   0.99329   0.62180   0.01267  Uiso   1.00
O58    O     0.96695   0.00783   0.69766   0.01267  Uiso   1.00
O59    O     0.32461   0.29426   0.55895   0.01267  Uiso   1.00
O60    O     0.24327   0.22355   0.64598   0.01267  Uiso   1.00
O61    O     0.08999   0.12705   0.23554   0.01267  Uiso   1.00
O62    O     0.08445   0.14169   0.31120   0.01267  Uiso   1.00
O63    O     0.38218   0.98603   0.93685   0.01267  Uiso   1.00
O64    O     0.29373   0.97631   0.94768   0.01267  Uiso   1.00
O65    O     0.25323   0.28749   0.04442   0.01267  Uiso   1.00
O66    O     0.32976   0.37978   0.02832   0.01267  Uiso   1.00
O67    O     0.14190   0.75512   0.30958   0.01267  Uiso   1.00
O68    O     0.12677   0.81640   0.23319   0.01267  Uiso   1.00
O69    O     0.38491   0.00671   0.02808   0.01267  Uiso   1.00
O70    O     0.29451   0.99217   0.04088   0.01267  Uiso   1.00
O71    O     0.14679   0.70574   0.96965   0.01267  Uiso   1.00
O72    O     0.13047   0.77645   0.98028   0.01267  Uiso   1.00
O73    O     0.76446   0.67447   0.36259   0.01267  Uiso   1.00
O74    O     0.68880   0.60435   0.45289   0.01267  Uiso   1.00
O75    O     0.06315   0.68097   0.92288   0.01267  Uiso   1.00
O76    O     0.05232   0.75859   0.92399   0.01267  Uiso   1.00
O77    O     0.95558   0.70235   0.33191   0.01267  Uiso   1.00
O78    O     0.97168   0.64192   0.40810   0.01267  Uiso   1.00
O79    O     0.69042   0.54852   0.06470   0.01267  Uiso   1.00
O80    O     0.76681   0.64004   0.04959   0.01267  Uiso   1.00
O81    O     0.97192   0.58701   0.03479   0.01267  Uiso   1.00
O82    O     0.95912   0.66461   0.03305   0.01267  Uiso   1.00
O83    O     0.03035   0.88356   0.67539   0.01267  Uiso   1.00
O84    O     0.01972   0.88925   0.75673   0.01267  Uiso   1.00
O85    O     0.96294   0.32553   0.91001   0.01267  Uiso   1.00
O86    O     0.94276   0.39565   0.91555   0.01267  Uiso   1.00
O87    O     0.39615   0.31903   0.61782   0.01267  Uiso   1.00
O88    O     0.31742   0.24141   0.70627   0.01267  Uiso   1.00
O89    O     0.96574   0.29765   0.74677   0.01267  Uiso   1.00
O90    O     0.94998   0.35808   0.67024   0.01267  Uiso   1.00
O91    O     0.38678   0.45148   0.85810   0.01267  Uiso   1.00
O92    O     0.31037   0.35996   0.87323   0.01267  Uiso   1.00
O93    O     0.37820   0.41299   0.61509   0.01267  Uiso   1.00
O94    O     0.30234   0.33539   0.70549   0.01267  Uiso   1.00
O95    O     0.44105   0.11644   0.85321   0.01267  Uiso   1.00
O96    O     0.35402   0.11075   0.86953   0.01267  Uiso   1.00
