data_WAVQIV_ion_b
_audit_creation_date              2014-07-02
_audit_creation_method            'Materials Studio'
_symmetry_space_group_name_H-M    'P1'
_symmetry_Int_Tables_number       1
_symmetry_cell_setting            triclinic
loop_
_symmetry_equiv_pos_as_xyz
  x,y,z
_cell_length_a                    27.1319
_cell_length_b                    27.1319
_cell_length_c                    27.1319
_cell_angle_alpha                 90.0000
_cell_angle_beta                  90.0000
_cell_angle_gamma                 90.0000
loop_
_atom_site_label
_atom_site_type_symbol
_atom_site_fract_x
_atom_site_fract_y
_atom_site_fract_z
_atom_site_U_iso_or_equiv
_atom_site_adp_type
_atom_site_occupancy
In1    In    0.22442   0.31585   0.25716   0.00000  Uiso   1.00
O2     O     0.25176   0.28311   0.19612   0.00000  Uiso   1.00
O3     O     0.19773   0.34344   0.31897   0.00000  Uiso   1.00
O4     O     0.16189   0.32846   0.22104   0.00000  Uiso   1.00
O5     O     0.14324   0.25527   0.18432   0.00000  Uiso   1.00
O6     O     0.25345   0.37971   0.23609   0.00000  Uiso   1.00
C7     C     0.05213   0.29579   0.14839   0.00000  Uiso   1.00
H8     H     0.05684   0.25635   0.14532   0.00000  Uiso   1.00
C9     C     0.13337   0.30212   0.19403   0.00000  Uiso   1.00
C10    C     0.08764   0.32490   0.17257   0.00000  Uiso   1.00
C11    C     0.00940   0.31691   0.12813   0.00000  Uiso   1.00
H12    H     0.98279   0.29267   0.11097   0.00000  Uiso   1.00
C13    C     0.00074   0.36813   0.13070   0.00000  Uiso   1.00
C14    C     0.03646   0.39722   0.15507   0.00000  Uiso   1.00
H15    H     0.03219   0.43675   0.15750   0.00000  Uiso   1.00
C16    C     0.07894   0.37593   0.17591   0.00000  Uiso   1.00
H17    H     0.10525   0.39968   0.19424   0.00000  Uiso   1.00
C18    C     0.29859   0.51003   0.16120   0.00000  Uiso   1.00
H19    H     0.29406   0.51230   0.12170   0.00000  Uiso   1.00
O20    O     0.29000   0.40532   0.30505   0.00000  Uiso   1.00
C21    C     0.28105   0.46764   0.18522   0.00000  Uiso   1.00
H22    H     0.26327   0.43925   0.16357   0.00000  Uiso   1.00
C23    C     0.93336   0.43341   0.12886   0.00000  Uiso   1.00
H24    H     0.94971   0.44963   0.16134   0.00000  Uiso   1.00
C25    C     0.95510   0.39087   0.10811   0.00000  Uiso   1.00
C26    C     0.34426   0.59217   0.16165   0.00000  Uiso   1.00
C27    C     0.32350   0.54745   0.18744   0.00000  Uiso   1.00
C28    C     0.27606   0.41310   0.26035   0.00000  Uiso   1.00
C29    C     0.32179   0.61142   0.11881   0.00000  Uiso   1.00
H30    H     0.28960   0.59327   0.10407   0.00000  Uiso   1.00
C31    C     0.28858   0.46084   0.23607   0.00000  Uiso   1.00
C32    C     0.31247   0.49839   0.26256   0.00000  Uiso   1.00
H33    H     0.31928   0.49449   0.30170   0.00000  Uiso   1.00
O34    O     0.26213   0.38458   0.35033   0.00000  Uiso   1.00
C35    C     0.21602   0.37200   0.35156   0.00000  Uiso   1.00
C36    C     0.32917   0.54113   0.23880   0.00000  Uiso   1.00
H37    H     0.34691   0.56908   0.26096   0.00000  Uiso   1.00
C38    C     0.13177   0.38300   0.38941   0.00000  Uiso   1.00
H39    H     0.11532   0.36544   0.35756   0.00000  Uiso   1.00
C40    C     0.18299   0.39108   0.39141   0.00000  Uiso   1.00
C41    C     0.08767   0.43144   0.51462   0.00000  Uiso   1.00
C42    C     0.04634   0.40204   0.52635   0.00000  Uiso   1.00
H43    H     0.03803   0.37026   0.50383   0.00000  Uiso   1.00
C44    C     0.20245   0.41364   0.43381   0.00000  Uiso   1.00
H45    H     0.24181   0.41934   0.43729   0.00000  Uiso   1.00
C46    C     0.10099   0.39685   0.42864   0.00000  Uiso   1.00
H47    H     0.06174   0.39052   0.42504   0.00000  Uiso   1.00
C48    C     0.17174   0.42697   0.47337   0.00000  Uiso   1.00
H49    H     0.18862   0.44239   0.50605   0.00000  Uiso   1.00
C50    C     0.12042   0.41856   0.47163   0.00000  Uiso   1.00
N51    N     0.24856   0.33658   0.09342   0.00000  Uiso   1.00
O52    O     0.16987   0.14042   0.21993   0.00000  Uiso   1.00
O53    O     0.37955   0.38408   0.37899   0.00000  Uiso   1.00
In54   In    0.27542   0.68437   0.75706   0.00000  Uiso   1.00
O55    O     0.24839   0.71733   0.69601   0.00000  Uiso   1.00
O56    O     0.30238   0.65626   0.81846   0.00000  Uiso   1.00
O57    O     0.33775   0.67150   0.72062   0.00000  Uiso   1.00
O58    O     0.35683   0.74469   0.68421   0.00000  Uiso   1.00
O59    O     0.24622   0.62075   0.73578   0.00000  Uiso   1.00
C60    C     0.44777   0.70381   0.64846   0.00000  Uiso   1.00
H61    H     0.44308   0.74325   0.64507   0.00000  Uiso   1.00
C62    C     0.36643   0.69778   0.69377   0.00000  Uiso   1.00
C63    C     0.41209   0.67486   0.67257   0.00000  Uiso   1.00
C64    C     0.49059   0.68252   0.62866   0.00000  Uiso   1.00
H65    H     0.51734   0.70665   0.61158   0.00000  Uiso   1.00
C66    C     0.49909   0.63129   0.63158   0.00000  Uiso   1.00
C67    C     0.46317   0.60235   0.65571   0.00000  Uiso   1.00
H68    H     0.46734   0.56280   0.65828   0.00000  Uiso   1.00
C69    C     0.42060   0.62380   0.67611   0.00000  Uiso   1.00
H70    H     0.39403   0.60019   0.69424   0.00000  Uiso   1.00
C71    C     0.20176   0.49002   0.66098   0.00000  Uiso   1.00
H72    H     0.20647   0.48748   0.62149   0.00000  Uiso   1.00
O73    O     0.20971   0.59515   0.80478   0.00000  Uiso   1.00
C74    C     0.21905   0.53254   0.68497   0.00000  Uiso   1.00
H75    H     0.23674   0.56093   0.66318   0.00000  Uiso   1.00
C76    C     0.56653   0.56607   0.63042   0.00000  Uiso   1.00
H77    H     0.55015   0.55013   0.66303   0.00000  Uiso   1.00
C78    C     0.54470   0.60840   0.60932   0.00000  Uiso   1.00
C79    C     0.15623   0.40782   0.66162   0.00000  Uiso   1.00
C80    C     0.17697   0.45259   0.68731   0.00000  Uiso   1.00
C81    C     0.22360   0.58736   0.76005   0.00000  Uiso   1.00
C82    C     0.17884   0.38832   0.61898   0.00000  Uiso   1.00
H83    H     0.21124   0.40627   0.60440   0.00000  Uiso   1.00
C84    C     0.21145   0.53942   0.73581   0.00000  Uiso   1.00
C85    C     0.18759   0.50187   0.76232   0.00000  Uiso   1.00
H86    H     0.18067   0.50596   0.80136   0.00000  Uiso   1.00
O87    O     0.23771   0.61577   0.85026   0.00000  Uiso   1.00
C88    C     0.28394   0.62795   0.85120   0.00000  Uiso   1.00
C89    C     0.17112   0.45902   0.73862   0.00000  Uiso   1.00
H90    H     0.15351   0.43103   0.76087   0.00000  Uiso   1.00
C91    C     0.36815   0.61602   0.88858   0.00000  Uiso   1.00
H92    H     0.38465   0.63299   0.85646   0.00000  Uiso   1.00
C93    C     0.31687   0.60843   0.89085   0.00000  Uiso   1.00
C94    C     0.41208   0.56905   0.01427   0.00000  Uiso   1.00
C95    C     0.45340   0.59861   0.02572   0.00000  Uiso   1.00
H96    H     0.46142   0.63049   0.00319   0.00000  Uiso   1.00
C97    C     0.29733   0.58607   0.93335   0.00000  Uiso   1.00
H98    H     0.25801   0.58043   0.93681   0.00000  Uiso   1.00
C99    C     0.39887   0.60257   0.92793   0.00000  Uiso   1.00
H100   H     0.43807   0.60883   0.92432   0.00000  Uiso   1.00
C101   C     0.32801   0.57301   0.97300   0.00000  Uiso   1.00
H102   H     0.31109   0.55793   0.00579   0.00000  Uiso   1.00
C103   C     0.37932   0.58143   0.97117   0.00000  Uiso   1.00
N104   N     0.26725   0.67589   0.59959   0.00000  Uiso   1.00
O105   O     0.33054   0.85970   0.71984   0.00000  Uiso   1.00
O106   O     0.12053   0.61671   0.87913   0.00000  Uiso   1.00
In107  In    0.77535   0.81551   0.24339   0.00000  Uiso   1.00
O108   O     0.74806   0.78267   0.30428   0.00000  Uiso   1.00
O109   O     0.80241   0.84373   0.18178   0.00000  Uiso   1.00
O110   O     0.83759   0.82847   0.27981   0.00000  Uiso   1.00
O111   O     0.85658   0.75531   0.31637   0.00000  Uiso   1.00
O112   O     0.74612   0.87940   0.26455   0.00000  Uiso   1.00
C113   C     0.94767   0.79613   0.35187   0.00000  Uiso   1.00
H114   H     0.94301   0.75669   0.35508   0.00000  Uiso   1.00
C115   C     0.86619   0.80224   0.30678   0.00000  Uiso   1.00
C116   C     0.91192   0.82518   0.32794   0.00000  Uiso   1.00
C117   C     0.99053   0.81737   0.37164   0.00000  Uiso   1.00
H118   H     0.01731   0.79316   0.38858   0.00000  Uiso   1.00
C119   C     0.99903   0.86862   0.36897   0.00000  Uiso   1.00
C120   C     0.96316   0.89762   0.34482   0.00000  Uiso   1.00
H121   H     0.96737   0.93718   0.34231   0.00000  Uiso   1.00
C122   C     0.92053   0.87620   0.32441   0.00000  Uiso   1.00
H123   H     0.89403   0.89987   0.30626   0.00000  Uiso   1.00
C124   C     0.70174   0.01049   0.33908   0.00000  Uiso   1.00
H125   H     0.70637   0.01298   0.37859   0.00000  Uiso   1.00
O126   O     0.70975   0.90496   0.19549   0.00000  Uiso   1.00
C127   C     0.71895   0.96784   0.31522   0.00000  Uiso   1.00
H128   H     0.73659   0.93948   0.33709   0.00000  Uiso   1.00
C129   C     0.06637   0.93409   0.37093   0.00000  Uiso   1.00
H130   H     0.05005   0.95045   0.33851   0.00000  Uiso   1.00
C131   C     0.04460   0.89141   0.39151   0.00000  Uiso   1.00
C132   C     0.65647   0.09296   0.33840   0.00000  Uiso   1.00
C133   C     0.67713   0.04802   0.31272   0.00000  Uiso   1.00
C134   C     0.72354   0.91281   0.24023   0.00000  Uiso   1.00
C135   C     0.67854   0.11188   0.38158   0.00000  Uiso   1.00
H136   H     0.71057   0.09362   0.39655   0.00000  Uiso   1.00
C137   C     0.71146   0.96086   0.26436   0.00000  Uiso   1.00
C138   C     0.68784   0.99850   0.23778   0.00000  Uiso   1.00
H139   H     0.68105   0.99443   0.19865   0.00000  Uiso   1.00
O140   O     0.73792   0.88447   0.15025   0.00000  Uiso   1.00
C141   C     0.78406   0.87220   0.14910   0.00000  Uiso   1.00
C142   C     0.67150   0.04151   0.26138   0.00000  Uiso   1.00
H143   H     0.65413   0.06950   0.23897   0.00000  Uiso   1.00
C144   C     0.86822   0.88384   0.11120   0.00000  Uiso   1.00
H145   H     0.88481   0.86660   0.14312   0.00000  Uiso   1.00
C146   C     0.81695   0.89160   0.10926   0.00000  Uiso   1.00
C147   C     0.91177   0.93146   0.98548   0.00000  Uiso   1.00
C148   C     0.95306   0.90197   0.97377   0.00000  Uiso   1.00
H149   H     0.96120   0.87008   0.99622   0.00000  Uiso   1.00
C150   C     0.79729   0.91417   0.06692   0.00000  Uiso   1.00
H151   H     0.75794   0.91993   0.06363   0.00000  Uiso   1.00
C152   C     0.89880   0.89754   0.07177   0.00000  Uiso   1.00
H153   H     0.93805   0.89128   0.07521   0.00000  Uiso   1.00
C154   C     0.82782   0.92741   0.02718   0.00000  Uiso   1.00
H155   H     0.81078   0.94273   0.99454   0.00000  Uiso   1.00
C156   C     0.87913   0.91893   0.02868   0.00000  Uiso   1.00
N157   N     0.74666   0.82930   0.41318   0.00000  Uiso   1.00
O158   O     0.83068   0.64043   0.28044   0.00000  Uiso   1.00
O159   O     0.62095   0.88336   0.12070   0.00000  Uiso   1.00
In160  In    0.72506   0.18258   0.74337   0.00000  Uiso   1.00
O161   O     0.75220   0.21580   0.80377   0.00000  Uiso   1.00
O162   O     0.69772   0.15324   0.68270   0.00000  Uiso   1.00
O163   O     0.66206   0.17283   0.78130   0.00000  Uiso   1.00
O164   O     0.64092   0.24528   0.81531   0.00000  Uiso   1.00
O165   O     0.75444   0.11960   0.76429   0.00000  Uiso   1.00
C166   C     0.55131   0.20514   0.85252   0.00000  Uiso   1.00
H167   H     0.55617   0.24462   0.85587   0.00000  Uiso   1.00
C168   C     0.63259   0.19951   0.80736   0.00000  Uiso   1.00
C169   C     0.58712   0.17635   0.82855   0.00000  Uiso   1.00
C170   C     0.50861   0.18362   0.87212   0.00000  Uiso   1.00
H171   H     0.48156   0.20769   0.88902   0.00000  Uiso   1.00
C172   C     0.50049   0.13229   0.86930   0.00000  Uiso   1.00
C173   C     0.53653   0.10346   0.84536   0.00000  Uiso   1.00
H174   H     0.53264   0.06382   0.84276   0.00000  Uiso   1.00
C175   C     0.57899   0.12521   0.82509   0.00000  Uiso   1.00
H176   H     0.60578   0.10174   0.80709   0.00000  Uiso   1.00
C177   C     0.79960   0.98921   0.83936   0.00000  Uiso   1.00
H178   H     0.79496   0.98681   0.87883   0.00000  Uiso   1.00
O179   O     0.79145   0.09474   0.69546   0.00000  Uiso   1.00
C180   C     0.78250   0.03175   0.81527   0.00000  Uiso   1.00
H181   H     0.76491   0.06010   0.83706   0.00000  Uiso   1.00
C182   C     0.43348   0.06650   0.87099   0.00000  Uiso   1.00
H183   H     0.44993   0.05037   0.83850   0.00000  Uiso   1.00
C184   C     0.45504   0.10918   0.89175   0.00000  Uiso   1.00
C185   C     0.84470   0.90692   0.83894   0.00000  Uiso   1.00
C186   C     0.82404   0.95159   0.81310   0.00000  Uiso   1.00
C187   C     0.77745   0.08664   0.73997   0.00000  Uiso   1.00
C188   C     0.82242   0.88775   0.88188   0.00000  Uiso   1.00
H189   H     0.79027   0.90590   0.89666   0.00000  Uiso   1.00
C190   C     0.78991   0.03865   0.76426   0.00000  Uiso   1.00
C191   C     0.81379   0.00087   0.73794   0.00000  Uiso   1.00
H192   H     0.82061   0.00475   0.69888   0.00000  Uiso   1.00
O193   O     0.76321   0.11638   0.64811   0.00000  Uiso   1.00
C194   C     0.71662   0.12693   0.64850   0.00000  Uiso   1.00
C195   C     0.82997   0.95788   0.76175   0.00000  Uiso   1.00
H196   H     0.84739   0.92980   0.73950   0.00000  Uiso   1.00
C197   C     0.63202   0.11545   0.61129   0.00000  Uiso   1.00
H198   H     0.61567   0.13294   0.64330   0.00000  Uiso   1.00
C199   C     0.68332   0.10769   0.60889   0.00000  Uiso   1.00
C200   C     0.58749   0.06812   0.48570   0.00000  Uiso   1.00
C201   C     0.54627   0.09772   0.47396   0.00000  Uiso   1.00
H202   H     0.53784   0.12936   0.49671   0.00000  Uiso   1.00
C203   C     0.70255   0.08530   0.56630   0.00000  Uiso   1.00
H204   H     0.74189   0.07971   0.56265   0.00000  Uiso   1.00
C205   C     0.60113   0.10189   0.57208   0.00000  Uiso   1.00
H206   H     0.56198   0.10863   0.57562   0.00000  Uiso   1.00
C207   C     0.67165   0.07213   0.52680   0.00000  Uiso   1.00
H208   H     0.68853   0.05726   0.49390   0.00000  Uiso   1.00
C209   C     0.62038   0.08043   0.52883   0.00000  Uiso   1.00
N210   N     0.76102   0.17624   0.90936   0.00000  Uiso   1.00
O211   O     0.71350   0.32277   0.85944   0.00000  Uiso   1.00
O212   O     0.88022   0.11666   0.62176   0.00000  Uiso   1.00
In213  In    0.25790   0.22569   0.31717   0.00000  Uiso   1.00
O214   O     0.19688   0.25224   0.28361   0.00000  Uiso   1.00
O215   O     0.31730   0.20190   0.35274   0.00000  Uiso   1.00
O216   O     0.22274   0.16222   0.32925   0.00000  Uiso   1.00
O217   O     0.18535   0.14297   0.25667   0.00000  Uiso   1.00
O218   O     0.23517   0.25510   0.38063   0.00000  Uiso   1.00
C219   C     0.15042   0.05215   0.29684   0.00000  Uiso   1.00
H220   H     0.14755   0.05675   0.25740   0.00000  Uiso   1.00
C221   C     0.19582   0.13336   0.30328   0.00000  Uiso   1.00
C222   C     0.17466   0.08770   0.32604   0.00000  Uiso   1.00
C223   C     0.12971   0.00977   0.31792   0.00000  Uiso   1.00
H224   H     0.11254   0.98321   0.29363   0.00000  Uiso   1.00
C225   C     0.13185   0.00134   0.36913   0.00000  Uiso   1.00
C226   C     0.15625   0.03697   0.39832   0.00000  Uiso   1.00
H227   H     0.15830   0.03271   0.43787   0.00000  Uiso   1.00
C228   C     0.17757   0.07919   0.37712   0.00000  Uiso   1.00
H229   H     0.19577   0.10555   0.40095   0.00000  Uiso   1.00
C230   C     0.15867   0.29986   0.51292   0.00000  Uiso   1.00
H231   H     0.11932   0.29433   0.51635   0.00000  Uiso   1.00
O232   O     0.29414   0.30862   0.40237   0.00000  Uiso   1.00
C233   C     0.18182   0.28353   0.46953   0.00000  Uiso   1.00
H234   H     0.15967   0.26595   0.44142   0.00000  Uiso   1.00
C235   C     0.12974   0.93394   0.43404   0.00000  Uiso   1.00
H236   H     0.16228   0.95013   0.45022   0.00000  Uiso   1.00
C237   C     0.10899   0.95589   0.39164   0.00000  Uiso   1.00
C238   C     0.16026   0.34578   0.59514   0.00000  Uiso   1.00
C239   C     0.18533   0.32504   0.54993   0.00000  Uiso   1.00
C240   C     0.25534   0.28406   0.41199   0.00000  Uiso   1.00
C241   C     0.11769   0.32325   0.61485   0.00000  Uiso   1.00
H242   H     0.10306   0.29090   0.59699   0.00000  Uiso   1.00
C243   C     0.23210   0.29269   0.46121   0.00000  Uiso   1.00
C244   C     0.25916   0.31591   0.49888   0.00000  Uiso   1.00
H245   H     0.29811   0.32332   0.49409   0.00000  Uiso   1.00
O246   O     0.37088   0.26504   0.36228   0.00000  Uiso   1.00
C247   C     0.35824   0.21936   0.36843   0.00000  Uiso   1.00
C248   C     0.23637   0.33136   0.54250   0.00000  Uiso   1.00
H249   H     0.25917   0.34881   0.57023   0.00000  Uiso   1.00
C250   C     0.39187   0.13358   0.38287   0.00000  Uiso   1.00
H251   H     0.35973   0.11798   0.36503   0.00000  Uiso   1.00
C252   C     0.39582   0.18489   0.38943   0.00000  Uiso   1.00
C253   C     0.51597   0.08730   0.43282   0.00000  Uiso   1.00
C254   C     0.52745   0.04609   0.40343   0.00000  Uiso   1.00
H255   H     0.50490   0.03790   0.37161   0.00000  Uiso   1.00
C256   C     0.43867   0.20341   0.41204   0.00000  Uiso   1.00
H257   H     0.44331   0.24268   0.41731   0.00000  Uiso   1.00
C258   C     0.43009   0.10193   0.39767   0.00000  Uiso   1.00
H259   H     0.42560   0.06276   0.39168   0.00000  Uiso   1.00
C260   C     0.47689   0.17190   0.42669   0.00000  Uiso   1.00
H261   H     0.50992   0.18811   0.44204   0.00000  Uiso   1.00
C262   C     0.47355   0.12058   0.41942   0.00000  Uiso   1.00
N263   N     0.09108   0.22811   0.34731   0.00000  Uiso   1.00
O264   O     0.21912   0.16806   0.14185   0.00000  Uiso   1.00
In266  In    0.75801   0.27438   0.68372   0.00000  Uiso   1.00
O267   O     0.69796   0.24475   0.71355   0.00000  Uiso   1.00
O268   O     0.81731   0.29876   0.64821   0.00000  Uiso   1.00
O269   O     0.72250   0.33751   0.67309   0.00000  Uiso   1.00
O270   O     0.68049   0.35351   0.74390   0.00000  Uiso   1.00
O271   O     0.73558   0.24599   0.61926   0.00000  Uiso   1.00
C272   C     0.64870   0.44691   0.70531   0.00000  Uiso   1.00
H273   H     0.64512   0.44175   0.74478   0.00000  Uiso   1.00
C274   C     0.69395   0.36527   0.69861   0.00000  Uiso   1.00
C275   C     0.67347   0.41146   0.67617   0.00000  Uiso   1.00
C276   C     0.62853   0.48981   0.68410   0.00000  Uiso   1.00
H277   H     0.61108   0.51611   0.70827   0.00000  Uiso   1.00
C278   C     0.63160   0.49848   0.63291   0.00000  Uiso   1.00
C279   C     0.65623   0.46297   0.60391   0.00000  Uiso   1.00
H280   H     0.65889   0.46700   0.56439   0.00000  Uiso   1.00
C281   C     0.67704   0.42049   0.62521   0.00000  Uiso   1.00
H282   H     0.69524   0.39408   0.60176   0.00000  Uiso   1.00
C283   C     0.65820   0.19965   0.48815   0.00000  Uiso   1.00
H284   H     0.61880   0.20482   0.48506   0.00000  Uiso   1.00
O285   O     0.79296   0.19104   0.59848   0.00000  Uiso   1.00
C286   C     0.68142   0.21612   0.53150   0.00000  Uiso   1.00
H287   H     0.65948   0.23346   0.55996   0.00000  Uiso   1.00
C288   C     0.62981   0.56556   0.56722   0.00000  Uiso   1.00
H289   H     0.66234   0.54921   0.55114   0.00000  Uiso   1.00
C290   C     0.60910   0.54398   0.60992   0.00000  Uiso   1.00
C291   C     0.65996   0.15430   0.40552   0.00000  Uiso   1.00
C292   C     0.68493   0.17475   0.45095   0.00000  Uiso   1.00
C293   C     0.75498   0.21657   0.58825   0.00000  Uiso   1.00
C294   C     0.61782   0.17738   0.38560   0.00000  Uiso   1.00
H295   H     0.60314   0.20944   0.40391   0.00000  Uiso   1.00
C296   C     0.73174   0.20747   0.53937   0.00000  Uiso   1.00
C297   C     0.75892   0.18444   0.50163   0.00000  Uiso   1.00
H298   H     0.79803   0.17739   0.50607   0.00000  Uiso   1.00
O299   O     0.87006   0.23540   0.63665   0.00000  Uiso   1.00
C300   C     0.85767   0.28119   0.63139   0.00000  Uiso   1.00
C301   C     0.73606   0.16888   0.45805   0.00000  Uiso   1.00
H302   H     0.75873   0.15164   0.43010   0.00000  Uiso   1.00
C303   C     0.89162   0.36718   0.61720   0.00000  Uiso   1.00
H304   H     0.85977   0.38282   0.63533   0.00000  Uiso   1.00
C305   C     0.89509   0.31581   0.61048   0.00000  Uiso   1.00
C306   C     0.01588   0.41282   0.56718   0.00000  Uiso   1.00
C307   C     0.02733   0.45435   0.59629   0.00000  Uiso   1.00
H308   H     0.00457   0.46287   0.62787   0.00000  Uiso   1.00
C309   C     0.93784   0.29712   0.58768   0.00000  Uiso   1.00
H310   H     0.94252   0.25782   0.58239   0.00000  Uiso   1.00
C311   C     0.93000   0.39867   0.60226   0.00000  Uiso   1.00
H312   H     0.92570   0.43780   0.60828   0.00000  Uiso   1.00
C313   C     0.97624   0.32847   0.57302   0.00000  Uiso   1.00
H314   H     0.00920   0.31207   0.55756   0.00000  Uiso   1.00
C315   C     0.97333   0.37976   0.58052   0.00000  Uiso   1.00
N316   N     0.57941   0.27030   0.66482   0.00000  Uiso   1.00
In319  In    0.24259   0.77453   0.81732   0.00000  Uiso   1.00
O320   O     0.30328   0.74797   0.78344   0.00000  Uiso   1.00
O321   O     0.18338   0.79873   0.85334   0.00000  Uiso   1.00
O322   O     0.27860   0.83749   0.82954   0.00000  Uiso   1.00
O323   O     0.31569   0.85694   0.75683   0.00000  Uiso   1.00
O324   O     0.26552   0.74499   0.88055   0.00000  Uiso   1.00
C325   C     0.35050   0.94774   0.79706   0.00000  Uiso   1.00
H326   H     0.35337   0.94315   0.75759   0.00000  Uiso   1.00
C327   C     0.30562   0.86634   0.80360   0.00000  Uiso   1.00
C328   C     0.32666   0.91208   0.82637   0.00000  Uiso   1.00
C329   C     0.37076   0.99043   0.81804   0.00000  Uiso   1.00
H330   H     0.38767   0.01711   0.79372   0.00000  Uiso   1.00
C331   C     0.36851   0.99887   0.86927   0.00000  Uiso   1.00
C332   C     0.34446   0.96311   0.89850   0.00000  Uiso   1.00
H333   H     0.34232   0.96736   0.93809   0.00000  Uiso   1.00
C334   C     0.32360   0.92061   0.87734   0.00000  Uiso   1.00
H335   H     0.30560   0.89415   0.90116   0.00000  Uiso   1.00
C336   C     0.34195   0.69999   0.01277   0.00000  Uiso   1.00
H337   H     0.38125   0.70559   0.01616   0.00000  Uiso   1.00
O338   O     0.20642   0.69172   0.90239   0.00000  Uiso   1.00
C339   C     0.31878   0.71662   0.96948   0.00000  Uiso   1.00
H340   H     0.34070   0.73476   0.94161   0.00000  Uiso   1.00
C341   C     0.37027   0.06632   0.93418   0.00000  Uiso   1.00
H342   H     0.33771   0.04990   0.95037   0.00000  Uiso   1.00
C343   C     0.39105   0.04452   0.89175   0.00000  Uiso   1.00
C344   C     0.34023   0.65397   0.09492   0.00000  Uiso   1.00
C345   C     0.31525   0.67454   0.04961   0.00000  Uiso   1.00
C346   C     0.24532   0.71612   0.91194   0.00000  Uiso   1.00
C347   C     0.38251   0.67685   0.11471   0.00000  Uiso   1.00
H348   H     0.39709   0.70918   0.09679   0.00000  Uiso   1.00
C349   C     0.26855   0.70731   0.96108   0.00000  Uiso   1.00
C350   C     0.24148   0.68379   0.99857   0.00000  Uiso   1.00
H351   H     0.20256   0.67636   0.99378   0.00000  Uiso   1.00
O352   O     0.12968   0.73573   0.86279   0.00000  Uiso   1.00
C353   C     0.14242   0.78136   0.86916   0.00000  Uiso   1.00
C354   C     0.26424   0.66820   0.04219   0.00000  Uiso   1.00
H355   H     0.24152   0.65066   0.06983   0.00000  Uiso   1.00
C356   C     0.10922   0.86721   0.88567   0.00000  Uiso   1.00
H357   H     0.14204   0.88314   0.86950   0.00000  Uiso   1.00
C358   C     0.10473   0.81573   0.89040   0.00000  Uiso   1.00
C359   C     0.98382   0.91285   0.93317   0.00000  Uiso   1.00
C360   C     0.97265   0.95450   0.90415   0.00000  Uiso   1.00
H361   H     0.99581   0.96317   0.87289   0.00000  Uiso   1.00
C362   C     0.06125   0.79696   0.91162   0.00000  Uiso   1.00
H363   H     0.05616   0.75760   0.91571   0.00000  Uiso   1.00
C364   C     0.07064   0.89874   0.90016   0.00000  Uiso   1.00
H365   H     0.07544   0.93808   0.89549   0.00000  Uiso   1.00
C366   C     0.02287   0.82835   0.92618   0.00000  Uiso   1.00
H367   H     0.98946   0.81194   0.94048   0.00000  Uiso   1.00
C368   C     0.02649   0.87976   0.92009   0.00000  Uiso   1.00
N369   N     0.41781   0.77062   0.86609   0.00000  Uiso   1.00
O370   O     0.28108   0.83260   0.64203   0.00000  Uiso   1.00
In372  In    0.74253   0.72540   0.18310   0.00000  Uiso   1.00
O373   O     0.80314   0.75200   0.21698   0.00000  Uiso   1.00
O374   O     0.68355   0.70153   0.14648   0.00000  Uiso   1.00
O375   O     0.77812   0.66216   0.17097   0.00000  Uiso   1.00
O376   O     0.81530   0.64274   0.24363   0.00000  Uiso   1.00
O377   O     0.76598   0.75480   0.12010   0.00000  Uiso   1.00
C378   C     0.85024   0.55192   0.20325   0.00000  Uiso   1.00
H379   H     0.85334   0.55659   0.24271   0.00000  Uiso   1.00
C380   C     0.80503   0.63324   0.19693   0.00000  Uiso   1.00
C381   C     0.82604   0.58749   0.17411   0.00000  Uiso   1.00
C382   C     0.87060   0.50933   0.18213   0.00000  Uiso   1.00
H383   H     0.88775   0.48274   0.20640   0.00000  Uiso   1.00
C384   C     0.86813   0.50087   0.13095   0.00000  Uiso   1.00
C385   C     0.84382   0.53652   0.10180   0.00000  Uiso   1.00
H386   H     0.84154   0.53231   0.06223   0.00000  Uiso   1.00
C387   C     0.82285   0.57890   0.12307   0.00000  Uiso   1.00
H388   H     0.80464   0.60533   0.09935   0.00000  Uiso   1.00
C389   C     0.84320   0.80035   0.98846   0.00000  Uiso   1.00
H390   H     0.88262   0.79540   0.98522   0.00000  Uiso   1.00
O391   O     0.70711   0.80828   0.09793   0.00000  Uiso   1.00
C392   C     0.82008   0.78401   0.03193   0.00000  Uiso   1.00
H393   H     0.84224   0.76703   0.06048   0.00000  Uiso   1.00
C394   C     0.86988   0.43352   0.06584   0.00000  Uiso   1.00
H395   H     0.83736   0.44987   0.04978   0.00000  Uiso   1.00
C396   C     0.89077   0.45532   0.10826   0.00000  Uiso   1.00
C397   C     0.84103   0.84529   0.90573   0.00000  Uiso   1.00
C398   C     0.81624   0.82481   0.95113   0.00000  Uiso   1.00
C399   C     0.74603   0.78373   0.08863   0.00000  Uiso   1.00
C400   C     0.88320   0.82239   0.88582   0.00000  Uiso   1.00
H401   H     0.89784   0.79010   0.90382   0.00000  Uiso   1.00
C402   C     0.76957   0.79239   0.03968   0.00000  Uiso   1.00
C403   C     0.74233   0.81483   0.00169   0.00000  Uiso   1.00
H404   H     0.70322   0.82157   0.00611   0.00000  Uiso   1.00
O405   O     0.62994   0.76455   0.13699   0.00000  Uiso   1.00
C406   C     0.64274   0.71900   0.13046   0.00000  Uiso   1.00
C407   C     0.76510   0.83032   0.95807   0.00000  Uiso   1.00
H408   H     0.74228   0.84708   0.93000   0.00000  Uiso   1.00
C409   C     0.60998   0.63327   0.11275   0.00000  Uiso   1.00
H410   H     0.64303   0.61732   0.12835   0.00000  Uiso   1.00
C411   C     0.60518   0.68479   0.10880   0.00000  Uiso   1.00
C412   C     0.48431   0.58776   0.06618   0.00000  Uiso   1.00
C413   C     0.47321   0.54623   0.09541   0.00000  Uiso   1.00
H414   H     0.49654   0.53763   0.12657   0.00000  Uiso   1.00
C415   C     0.56151   0.70364   0.08803   0.00000  Uiso   1.00
H416   H     0.55622   0.74301   0.08443   0.00000  Uiso   1.00
C417   C     0.57140   0.60177   0.09828   0.00000  Uiso   1.00
H418   H     0.57637   0.56239   0.10241   0.00000  Uiso   1.00
C419   C     0.52312   0.67228   0.07346   0.00000  Uiso   1.00
H420   H     0.48952   0.68868   0.05959   0.00000  Uiso   1.00
C421   C     0.52700   0.62083   0.07900   0.00000  Uiso   1.00
N422   N     0.90782   0.75184   0.18389   0.00000  Uiso   1.00
O423   O     0.78092   0.66762   0.35850   0.00000  Uiso   1.00
In425  In    0.31605   0.25920   0.22417   0.00000  Uiso   1.00
O426   O     0.28488   0.19784   0.25332   0.00000  Uiso   1.00
O427   O     0.34399   0.32113   0.19805   0.00000  Uiso   1.00
O428   O     0.32809   0.22218   0.16191   0.00000  Uiso   1.00
O429   O     0.25590   0.18363   0.14366   0.00000  Uiso   1.00
O430   O     0.38495   0.24359   0.24585   0.00000  Uiso   1.00
C431   C     0.29595   0.14923   0.05254   0.00000  Uiso   1.00
H432   H     0.25642   0.14626   0.05716   0.00000  Uiso   1.00
C433   C     0.30236   0.19440   0.13366   0.00000  Uiso   1.00
C434   C     0.32516   0.17320   0.08806   0.00000  Uiso   1.00
C435   C     0.31703   0.12899   0.00991   0.00000  Uiso   1.00
H436   H     0.29273   0.11200   0.98319   0.00000  Uiso   1.00
C437   C     0.36817   0.13138   0.00153   0.00000  Uiso   1.00
C438   C     0.39740   0.15547   0.03724   0.00000  Uiso   1.00
H439   H     0.43697   0.15764   0.03304   0.00000  Uiso   1.00
C440   C     0.37617   0.17636   0.07958   0.00000  Uiso   1.00
H441   H     0.39992   0.19450   0.10608   0.00000  Uiso   1.00
C442   C     0.51439   0.16034   0.29303   0.00000  Uiso   1.00
H443   H     0.51777   0.12132   0.28583   0.00000  Uiso   1.00
O444   O     0.39903   0.28511   0.31658   0.00000  Uiso   1.00
C445   C     0.47180   0.18437   0.27582   0.00000  Uiso   1.00
H446   H     0.44449   0.16340   0.25585   0.00000  Uiso   1.00
C447   C     0.43317   0.12970   0.93427   0.00000  Uiso   1.00
H448   H     0.44927   0.16224   0.95061   0.00000  Uiso   1.00
C449   C     0.39082   0.10879   0.95603   0.00000  Uiso   1.00
C450   C     0.59477   0.15972   0.34232   0.00000  Uiso   1.00
C451   C     0.55035   0.18573   0.32099   0.00000  Uiso   1.00
C452   C     0.41344   0.25663   0.28121   0.00000  Uiso   1.00
C453   C     0.61446   0.11728   0.31957   0.00000  Uiso   1.00
H454   H     0.59703   0.10307   0.28681   0.00000  Uiso   1.00
C455   C     0.46299   0.23394   0.28755   0.00000  Uiso   1.00
C456   C     0.49953   0.25989   0.31352   0.00000  Uiso   1.00
H457   H     0.49397   0.29828   0.32310   0.00000  Uiso   1.00
O458   O     0.37019   0.36543   0.26267   0.00000  Uiso   1.00
C459   C     0.36659   0.35821   0.21626   0.00000  Uiso   1.00
C460   C     0.54275   0.23651   0.32921   0.00000  Uiso   1.00
H461   H     0.56973   0.25851   0.34853   0.00000  Uiso   1.00
C462   C     0.38120   0.39243   0.13085   0.00000  Uiso   1.00
H463   H     0.36307   0.36060   0.11493   0.00000  Uiso   1.00
C464   C     0.38776   0.39603   0.18218   0.00000  Uiso   1.00
C465   C     0.43190   0.51618   0.08534   0.00000  Uiso   1.00
C466   C     0.40186   0.52806   0.04458   0.00000  Uiso   1.00
H467   H     0.37006   0.50543   0.03657   0.00000  Uiso   1.00
C468   C     0.41171   0.43805   0.20088   0.00000  Uiso   1.00
H469   H     0.41726   0.44232   0.24014   0.00000  Uiso   1.00
C470   C     0.39677   0.43049   0.09938   0.00000  Uiso   1.00
H471   H     0.39094   0.42623   0.06013   0.00000  Uiso   1.00
C472   C     0.42695   0.47621   0.16955   0.00000  Uiso   1.00
H473   H     0.44313   0.50875   0.18598   0.00000  Uiso   1.00
C474   C     0.41897   0.47352   0.11831   0.00000  Uiso   1.00
N475   N     0.33701   0.08275   0.23728   0.00000  Uiso   1.00
O476   O     0.14102   0.21796   0.17014   0.00000  Uiso   1.00
In478  In    0.68388   0.75838   0.27585   0.00000  Uiso   1.00
O479   O     0.71551   0.69726   0.24680   0.00000  Uiso   1.00
O480   O     0.65549   0.82016   0.30182   0.00000  Uiso   1.00
O481   O     0.67167   0.72083   0.33801   0.00000  Uiso   1.00
O482   O     0.74399   0.68270   0.35649   0.00000  Uiso   1.00
O483   O     0.61560   0.74243   0.25354   0.00000  Uiso   1.00
C484   C     0.70376   0.64774   0.44762   0.00000  Uiso   1.00
H485   H     0.74321   0.64469   0.44287   0.00000  Uiso   1.00
C486   C     0.69739   0.69307   0.36631   0.00000  Uiso   1.00
C487   C     0.67457   0.67180   0.41200   0.00000  Uiso   1.00
C488   C     0.68274   0.62766   0.49044   0.00000  Uiso   1.00
H489   H     0.70709   0.61070   0.51706   0.00000  Uiso   1.00
C490   C     0.63159   0.63022   0.49909   0.00000  Uiso   1.00
C491   C     0.60238   0.65440   0.46336   0.00000  Uiso   1.00
H492   H     0.56284   0.65680   0.46766   0.00000  Uiso   1.00
C493   C     0.62356   0.67512   0.42078   0.00000  Uiso   1.00
H494   H     0.59981   0.69334   0.39437   0.00000  Uiso   1.00
C495   C     0.48773   0.65813   0.20407   0.00000  Uiso   1.00
H496   H     0.48502   0.61872   0.20938   0.00000  Uiso   1.00
O497   O     0.60156   0.78423   0.18292   0.00000  Uiso   1.00
C498   C     0.53049   0.68200   0.22107   0.00000  Uiso   1.00
H499   H     0.55886   0.66053   0.23900   0.00000  Uiso   1.00
C500   C     0.56654   0.62875   0.56661   0.00000  Uiso   1.00
H501   H     0.55030   0.66108   0.55005   0.00000  Uiso   1.00
C502   C     0.60903   0.60788   0.54492   0.00000  Uiso   1.00
C503   C     0.40606   0.65864   0.15744   0.00000  Uiso   1.00
C504   C     0.45070   0.68429   0.17840   0.00000  Uiso   1.00
C505   C     0.58730   0.75543   0.21808   0.00000  Uiso   1.00
C506   C     0.38663   0.61608   0.18008   0.00000  Uiso   1.00
H507   H     0.40453   0.60161   0.21251   0.00000  Uiso   1.00
C508   C     0.53811   0.73225   0.21151   0.00000  Uiso   1.00
C509   C     0.50065   0.75876   0.18752   0.00000  Uiso   1.00
H510   H     0.50552   0.79757   0.17945   0.00000  Uiso   1.00
O511   O     0.62947   0.86452   0.23702   0.00000  Uiso   1.00
C512   C     0.63286   0.85721   0.28345   0.00000  Uiso   1.00
C513   C     0.45738   0.73543   0.17196   0.00000  Uiso   1.00
H514   H     0.42962   0.75773   0.15407   0.00000  Uiso   1.00
C515   C     0.61650   0.89088   0.36883   0.00000  Uiso   1.00
H516   H     0.63266   0.85819   0.38489   0.00000  Uiso   1.00
C517   C     0.61172   0.89519   0.31738   0.00000  Uiso   1.00
C518   C     0.56821   0.01559   0.41415   0.00000  Uiso   1.00
C519   C     0.59767   0.02697   0.45550   0.00000  Uiso   1.00
H520   H     0.62896   0.00387   0.46403   0.00000  Uiso   1.00
C521   C     0.58963   0.93814   0.29838   0.00000  Uiso   1.00
H522   H     0.58536   0.94301   0.25903   0.00000  Uiso   1.00
C523   C     0.60145   0.92921   0.40022   0.00000  Uiso   1.00
H524   H     0.60594   0.92441   0.43956   0.00000  Uiso   1.00
C525   C     0.57472   0.97644   0.32967   0.00000  Uiso   1.00
H526   H     0.55993   0.00959   0.31321   0.00000  Uiso   1.00
C527   C     0.58115   0.97306   0.38110   0.00000  Uiso   1.00
N528   N     0.66973   0.57547   0.24302   0.00000  Uiso   1.00
O529   O     0.85887   0.71797   0.33051   0.00000  Uiso   1.00
In531  In    0.81546   0.24231   0.77552   0.00000  Uiso   1.00
O532   O     0.78064   0.30305   0.74885   0.00000  Uiso   1.00
O533   O     0.84449   0.18125   0.80285   0.00000  Uiso   1.00
O534   O     0.82788   0.27962   0.83699   0.00000  Uiso   1.00
O535   O     0.75329   0.31440   0.85566   0.00000  Uiso   1.00
O536   O     0.88357   0.25944   0.75278   0.00000  Uiso   1.00
C537   C     0.79514   0.35218   0.94644   0.00000  Uiso   1.00
H538   H     0.75574   0.35568   0.94170   0.00000  Uiso   1.00
C539   C     0.80135   0.30631   0.86524   0.00000  Uiso   1.00
C540   C     0.82410   0.32803   0.91078   0.00000  Uiso   1.00
C541   C     0.81636   0.37177   0.98944   0.00000  Uiso   1.00
H542   H     0.79217   0.38875   0.01621   0.00000  Uiso   1.00
C543   C     0.86756   0.36870   0.99815   0.00000  Uiso   1.00
C544   C     0.89649   0.34453   0.96232   0.00000  Uiso   1.00
H545   H     0.93603   0.34171   0.96672   0.00000  Uiso   1.00
C546   C     0.87512   0.32431   0.91958   0.00000  Uiso   1.00
H547   H     0.89885   0.30599   0.89324   0.00000  Uiso   1.00
C548   C     0.01172   0.34318   0.70314   0.00000  Uiso   1.00
H549   H     0.01437   0.38266   0.70765   0.00000  Uiso   1.00
O550   O     0.89929   0.21545   0.68401   0.00000  Uiso   1.00
C551   C     0.96875   0.31959   0.72006   0.00000  Uiso   1.00
H552   H     0.93984   0.34138   0.73686   0.00000  Uiso   1.00
C553   C     0.93307   0.37023   0.06559   0.00000  Uiso   1.00
H554   H     0.94920   0.33771   0.04921   0.00000  Uiso   1.00
C555   C     0.89044   0.39097   0.04387   0.00000  Uiso   1.00
C556   C     0.09395   0.34187   0.65733   0.00000  Uiso   1.00
C557   C     0.04910   0.31660   0.67831   0.00000  Uiso   1.00
C558   C     0.91267   0.24552   0.71833   0.00000  Uiso   1.00
C559   C     0.11356   0.38434   0.67984   0.00000  Uiso   1.00
H560   H     0.09548   0.39913   0.71210   0.00000  Uiso   1.00
C561   C     0.96167   0.26901   0.71170   0.00000  Uiso   1.00
C562   C     0.99939   0.24215   0.68863   0.00000  Uiso   1.00
H563   H     0.99481   0.20312   0.68141   0.00000  Uiso   1.00
O564   O     0.87106   0.13639   0.73816   0.00000  Uiso   1.00
C565   C     0.86740   0.14413   0.78462   0.00000  Uiso   1.00
C566   C     0.04264   0.26534   0.67287   0.00000  Uiso   1.00
H567   H     0.07062   0.24290   0.65564   0.00000  Uiso   1.00
C568   C     0.88206   0.10940   0.87015   0.00000  Uiso   1.00
H569   H     0.86439   0.14133   0.88632   0.00000  Uiso   1.00
C570   C     0.88864   0.10622   0.81875   0.00000  Uiso   1.00
C571   C     0.93149   0.98464   0.91456   0.00000  Uiso   1.00
C572   C     0.90147   0.97258   0.95534   0.00000  Uiso   1.00
H573   H     0.86971   0.99524   0.96344   0.00000  Uiso   1.00
C574   C     0.91237   0.06415   0.79979   0.00000  Uiso   1.00
H575   H     0.91822   0.06027   0.76056   0.00000  Uiso   1.00
C576   C     0.89702   0.07081   0.90130   0.00000  Uiso   1.00
H577   H     0.89115   0.07474   0.94057   0.00000  Uiso   1.00
C578   C     0.92700   0.02551   0.83076   0.00000  Uiso   1.00
H579   H     0.94297   0.99299   0.81403   0.00000  Uiso   1.00
C580   C     0.91883   0.02771   0.88198   0.00000  Uiso   1.00
N581   N     0.81758   0.42473   0.76822   0.00000  Uiso   1.00
O582   O     0.65481   0.34662   0.77517   0.00000  Uiso   1.00
In584  In    0.18422   0.74141   0.72432   0.00000  Uiso   1.00
O585   O     0.21569   0.80261   0.75348   0.00000  Uiso   1.00
O586   O     0.15595   0.67963   0.69822   0.00000  Uiso   1.00
O587   O     0.17221   0.77839   0.66196   0.00000  Uiso   1.00
O588   O     0.24438   0.81688   0.64373   0.00000  Uiso   1.00
O589   O     0.11568   0.75732   0.74604   0.00000  Uiso   1.00
C590   C     0.20423   0.85112   0.55230   0.00000  Uiso   1.00
H591   H     0.24370   0.85421   0.55695   0.00000  Uiso   1.00
C592   C     0.19794   0.80610   0.63368   0.00000  Uiso   1.00
C593   C     0.17513   0.82712   0.58798   0.00000  Uiso   1.00
C594   C     0.18307   0.87120   0.50959   0.00000  Uiso   1.00
H595   H     0.20730   0.88823   0.48290   0.00000  Uiso   1.00
C596   C     0.13185   0.86867   0.50123   0.00000  Uiso   1.00
C597   C     0.10275   0.84447   0.53697   0.00000  Uiso   1.00
H598   H     0.06319   0.84216   0.53279   0.00000  Uiso   1.00
C599   C     0.12408   0.82374   0.57942   0.00000  Uiso   1.00
H600   H     0.10043   0.80561   0.60591   0.00000  Uiso   1.00
C601   C     0.98774   0.84123   0.79578   0.00000  Uiso   1.00
H602   H     0.98500   0.88066   0.79065   0.00000  Uiso   1.00
O603   O     0.10154   0.71574   0.81680   0.00000  Uiso   1.00
C604   C     0.03032   0.81745   0.77836   0.00000  Uiso   1.00
H605   H     0.05846   0.83899   0.76022   0.00000  Uiso   1.00
C606   C     0.06658   0.87066   0.43392   0.00000  Uiso   1.00
H607   H     0.05046   0.83805   0.45018   0.00000  Uiso   1.00
C608   C     0.10906   0.89134   0.45578   0.00000  Uiso   1.00
C609   C     0.90649   0.84052   0.84291   0.00000  Uiso   1.00
C610   C     0.95094   0.81495   0.82166   0.00000  Uiso   1.00
C611   C     0.08730   0.74431   0.78146   0.00000  Uiso   1.00
C612   C     0.88697   0.88301   0.82035   0.00000  Uiso   1.00
H613   H     0.90477   0.89743   0.78785   0.00000  Uiso   1.00
C614   C     0.03804   0.76723   0.78785   0.00000  Uiso   1.00
C615   C     0.00077   0.74058   0.81194   0.00000  Uiso   1.00
H616   H     0.00576   0.70177   0.81988   0.00000  Uiso   1.00
O617   O     0.12954   0.63545   0.76286   0.00000  Uiso   1.00
C618   C     0.13313   0.64270   0.71645   0.00000  Uiso   1.00
C619   C     0.95761   0.76382   0.82790   0.00000  Uiso   1.00
H620   H     0.92999   0.74149   0.84595   0.00000  Uiso   1.00
C621   C     0.11729   0.60899   0.63097   0.00000  Uiso   1.00
H622   H     0.13389   0.64152   0.61492   0.00000  Uiso   1.00
C623   C     0.11198   0.60485   0.68241   0.00000  Uiso   1.00
C624   C     0.06835   0.48445   0.58572   0.00000  Uiso   1.00
C625   C     0.09805   0.47260   0.54470   0.00000  Uiso   1.00
H626   H     0.12971   0.49537   0.53640   0.00000  Uiso   1.00
C627   C     0.08932   0.56218   0.70129   0.00000  Uiso   1.00
H628   H     0.08452   0.55748   0.74062   0.00000  Uiso   1.00
C629   C     0.10220   0.57067   0.59955   0.00000  Uiso   1.00
H630   H     0.10711   0.57522   0.56021   0.00000  Uiso   1.00
C631   C     0.07439   0.52390   0.66998   0.00000  Uiso   1.00
H632   H     0.05917   0.49093   0.68644   0.00000  Uiso   1.00
C633   C     0.08135   0.52706   0.61864   0.00000  Uiso   1.00
N634   N     0.16278   0.92319   0.75185   0.00000  Uiso   1.00
O635   O     0.35902   0.78201   0.66979   0.00000  Uiso   1.00
Nd637  Nd    0.21351   0.21271   0.21350   0.00000  Uiso   1.00
Nd638  Nd    0.33052   0.33434   0.33102   0.00000  Uiso   1.00
O639   O     0.28387   0.28498   0.28417   0.00000  Uiso   1.00
Nd640  Nd    0.28685   0.78759   0.71349   0.00000  Uiso   1.00
Nd641  Nd    0.16963   0.66629   0.83109   0.00000  Uiso   1.00
O642   O     0.21629   0.71548   0.78418   0.00000  Uiso   1.00
Nd643  Nd    0.78666   0.71239   0.28690   0.00000  Uiso   1.00
Nd644  Nd    0.66980   0.83377   0.16897   0.00000  Uiso   1.00
O645   O     0.71618   0.78449   0.21611   0.00000  Uiso   1.00
Nd646  Nd    0.70867   0.28248   0.78517   0.00000  Uiso   1.00
Nd647  Nd    0.83110   0.16612   0.66964   0.00000  Uiso   1.00
O648   O     0.78432   0.21506   0.71636   0.00000  Uiso   1.00
O649   O     0.68690   0.55758   0.19975   0.00000  Uiso   1.00
O650   O     0.64504   0.61745   0.23237   0.00000  Uiso   1.00
O651   O     0.70961   0.58872   0.26989   0.00000  Uiso   1.00
O652   O     0.30903   0.64940   0.59329   0.00000  Uiso   1.00
O653   O     0.27070   0.71557   0.56958   0.00000  Uiso   1.00
O654   O     0.22977   0.64795   0.58224   0.00000  Uiso   1.00
O655   O     0.39431   0.80819   0.88899   0.00000  Uiso   1.00
O656   O     0.38306   0.73666   0.85493   0.00000  Uiso   1.00
O657   O     0.43467   0.78859   0.82273   0.00000  Uiso   1.00
O658   O     0.52972   0.27351   0.66222   0.00000  Uiso   1.00
O659   O     0.59746   0.31374   0.64824   0.00000  Uiso   1.00
O660   O     0.59099   0.26752   0.71323   0.00000  Uiso   1.00
O661   O     0.75398   0.12812   0.92044   0.00000  Uiso   1.00
O662   O     0.78857   0.19556   0.94616   0.00000  Uiso   1.00
O663   O     0.71632   0.19823   0.91185   0.00000  Uiso   1.00
O664   O     0.77013   0.41156   0.77598   0.00000  Uiso   1.00
O665   O     0.82449   0.46790   0.79222   0.00000  Uiso   1.00
O666   O     0.84586   0.39079   0.79138   0.00000  Uiso   1.00
O667   O     0.15374   0.95479   0.78935   0.00000  Uiso   1.00
O668   O     0.21227   0.91753   0.74948   0.00000  Uiso   1.00
O669   O     0.14399   0.87910   0.76550   0.00000  Uiso   1.00
O670   O     0.77599   0.81232   0.44976   0.00000  Uiso   1.00
O671   O     0.73130   0.87469   0.42700   0.00000  Uiso   1.00
O672   O     0.70627   0.80009   0.41260   0.00000  Uiso   1.00
O673   O     0.24204   0.28794   0.08453   0.00000  Uiso   1.00
O674   O     0.25593   0.35835   0.04916   0.00000  Uiso   1.00
O675   O     0.20515   0.35389   0.11083   0.00000  Uiso   1.00
O676   O     0.37334   0.05003   0.22748   0.00000  Uiso   1.00
O677   O     0.35934   0.12548   0.24987   0.00000  Uiso   1.00
O678   O     0.31327   0.09114   0.19423   0.00000  Uiso   1.00
O679   O     0.05789   0.19090   0.34672   0.00000  Uiso   1.00
O680   O     0.13248   0.20986   0.36819   0.00000  Uiso   1.00
O681   O     0.07334   0.26267   0.37860   0.00000  Uiso   1.00
O682   O     0.94044   0.75634   0.22134   0.00000  Uiso   1.00
O683   O     0.90171   0.70298   0.17601   0.00000  Uiso   1.00
O684   O     0.93004   0.77027   0.14322   0.00000  Uiso   1.00
loop_
_geom_bond_atom_site_label_1
_geom_bond_atom_site_label_2
_geom_bond_distance
_geom_bond_site_symmetry_2
_ccdc_geom_bond_type
In1    O2      2.020   .     S
In1    O3      1.974   .     S
In1    O4      1.989   .     S
In1    O6      1.987   .     S
In1    O214    2.013   .     S
In1    O639    1.960   .     S
O2     In425   2.011   .     S
O2     Nd637   2.224   .     S
O3     C35     1.276   .     A
O4     C9      1.283   .     A
O5     C9      1.325   .     A
O5     Nd637   2.365   .     S
O6     C28     1.277   .     A
C7     H8      1.081   .     S
C7     C10     1.408   .     A
C7     C11     1.405   .     A
C9     C10     1.503   .     S
C10    C16     1.407   .     A
C11    C13     1.411   .     A
C11    H12     1.082   1_455 S
H12    C11     1.082   1_655 S
C13    C14     1.414   .     A
C13    C25     1.513   1_455 S
C14    H15     1.081   .     S
C14    C16     1.408   .     A
C16    H17     1.083   .     S
C18    H19     1.080   .     S
C18    C21     1.405   .     A
C18    C27     1.412   .     A
O20    C28     1.288   .     A
O20    Nd638   2.327   .     S
C21    H22     1.082   .     S
C21    C31     1.407   .     A
C23    H24     1.080   .     S
C23    C25     1.413   .     A
C23    C396    1.415   .     A
C25    C553    1.415   .     A
C25    C13     1.513   1_655 S
C26    C27     1.510   .     S
C26    C29     1.413   .     A
C26    C506    1.412   .     A
C27    C36     1.412   .     A
C28    C31     1.492   .     S
C29    H30     1.079   .     S
C29    C344    1.415   .     A
C31    C32     1.405   .     A
C32    H33     1.083   .     S
C32    C36     1.402   .     A
O34    C35     1.297   .     A
O34    Nd638   2.361   .     S
C35    C40     1.497   .     S
C36    H37     1.081   .     S
C38    H39     1.083   .     S
C38    C40     1.408   .     A
C38    C46     1.404   .     A
C40    C44     1.406   .     A
C41    C42     1.412   .     A
C41    C50     1.507   .     S
C41    C625    1.412   .     A
C42    H43     1.081   .     S
C42    C306    1.413   .     A
C44    H45     1.083   .     S
C44    C48     1.406   .     A
C46    H47     1.083   .     S
C46    C50     1.409   .     A
C48    H49     1.082   .     S
C48    C50     1.412   .     A
N51    O673    1.353   .     S
N51    O674    1.353   .     S
N51    O675    1.353   .     S
O52    Nd637   2.298   .     S
O53    Nd638   2.299   .     S
In54   O55     2.020   .     S
In54   O56     1.973   .     S
In54   O57     1.990   .     S
In54   O59     1.985   .     S
In54   O320    2.015   .     S
In54   O642    1.956   .     S
O55    In584   2.012   .     S
O55    Nd640   2.224   .     S
O56    C88     1.276   .     A
O57    C62     1.282   .     A
O58    C62     1.325   .     A
O58    Nd640   2.365   .     S
O59    C81     1.277   .     A
C60    H61     1.082   .     S
C60    C63     1.408   .     A
C60    C64     1.404   .     A
C62    C63     1.501   .     S
C63    C69     1.408   .     A
C64    H65     1.082   .     S
C64    C66     1.411   .     A
C66    C67     1.412   .     A
C66    C78     1.511   .     S
C67    H68     1.081   .     S
C67    C69     1.407   .     A
C69    H70     1.083   .     S
C71    H72     1.081   .     S
C71    C74     1.405   .     A
C71    C80     1.412   .     A
O73    C81     1.288   .     A
O73    Nd641   2.328   .     S
C74    H75     1.083   .     S
C74    C84     1.407   .     A
C76    H77     1.080   .     S
C76    C78     1.413   .     A
C76    C290    1.415   .     A
C78    C500    1.414   .     A
C79    C80     1.509   .     S
C79    C82     1.412   .     A
C79    C559    1.411   .     A
C80    C89     1.412   .     A
C81    C84     1.494   .     S
C82    H83     1.080   .     S
C82    C238    1.416   .     A
C84    C85     1.405   .     A
C85    H86     1.081   .     S
C85    C89     1.402   .     A
O87    C88     1.297   .     A
O87    Nd641   2.358   .     S
C88    C93     1.495   .     S
C89    H90     1.081   .     S
C91    H92     1.083   .     S
C91    C93     1.408   .     A
C91    C99     1.403   .     A
C93    C97     1.407   .     A
C94    C95     1.413   .     A
C94    C466    1.411   .     A
C94    C103    1.507   1_554 S
C95    H96     1.081   .     S
C95    C412    1.412   .     A
C97    H98     1.082   .     S
C97    C101    1.406   .     A
C99    H100    1.081   .     S
C99    C103    1.410   .     A
C101   C103    1.412   .     A
C101   H102    1.081   1_556 S
H102   C101    1.081   1_554 S
C103   C94     1.507   1_556 S
N104   O652    1.353   .     S
N104   O653    1.353   .     S
N104   O654    1.353   .     S
O105   Nd640   2.294   .     S
O106   Nd641   2.299   .     S
In107  O108    2.018   .     S
In107  O109    1.980   .     S
In107  O110    1.988   .     S
In107  O112    1.991   .     S
In107  O373    2.013   .     S
In107  O645    1.958   .     S
O108   In478   2.015   .     S
O108   Nd643   2.226   .     S
O109   C141    1.277   .     A
O110   C115    1.282   .     A
O111   C115    1.326   .     A
O111   Nd643   2.365   .     S
O112   C134    1.278   .     A
C113   H114    1.081   .     S
C113   C116    1.408   .     A
C113   C117    1.404   .     A
C115   C116    1.502   .     S
C116   C122    1.407   .     A
C117   C119    1.411   .     A
C117   H118    1.082   1_655 A
H118   C117    1.082   1_455 A
C119   C120    1.413   .     A
C119   C131    1.512   1_655 A
C120   H121    1.082   .     S
C120   C122    1.408   .     A
C122   H123    1.083   .     S
C124   H125    1.081   .     S
C124   C133    1.412   .     A
C124   C127    1.406   1_545 S
O126   C134    1.288   .     A
O126   Nd644   2.329   .     S
C127   H128    1.083   .     S
C127   C137    1.408   .     A
C127   C124    1.406   1_565 S
C129   H130    1.080   .     S
C129   C131    1.415   .     A
C129   C237    1.415   .     A
C131   C606    1.413   .     A
C131   C119    1.512   1_455 A
C132   C133    1.512   .     S
C132   C135    1.412   .     A
C132   C453    1.413   .     A
C133   C142    1.412   .     A
C134   C137    1.495   .     S
C135   H136    1.080   .     S
C135   C291    1.414   .     A
C137   C138    1.405   .     A
C138   H139    1.083   .     S
C138   C142    1.403   1_565 A
O140   C141    1.296   .     A
O140   Nd644   2.359   .     S
C141   C146    1.497   .     S
C142   H143    1.081   .     S
C142   C138    1.403   1_545 A
C144   H145    1.082   .     S
C144   C146    1.408   .     A
C144   C152    1.404   .     A
C146   C150    1.407   .     A
C147   C148    1.413   .     A
C147   C572    1.411   .     A
C147   C156    1.508   1_556 S
C148   H149    1.081   .     S
C148   C359    1.413   .     A
C150   H151    1.083   .     S
C150   C154    1.406   .     A
C152   H153    1.082   .     S
C152   C156    1.410   .     A
C154   C156    1.412   .     A
C154   H155    1.082   1_554 A
H155   C154    1.082   1_556 A
C156   C147    1.508   1_554 S
N157   O670    1.353   .     S
N157   O671    1.353   .     S
N157   O672    1.352   .     S
O158   Nd643   2.295   .     S
O159   Nd644   2.298   .     S
In160  O161    2.010   .     S
In160  O162    1.973   .     S
In160  O163    2.013   .     S
In160  O165    1.969   .     S
In160  O267    2.010   .     S
In160  O648    1.975   .     S
O161   In531   2.013   .     S
O161   Nd646   2.219   .     S
O162   C194    1.278   .     A
O163   C168    1.290   .     A
O164   C168    1.281   .     A
O164   Nd646   2.251   .     S
O165   C187    1.275   .     A
C166   H167    1.083   .     S
C166   C169    1.406   .     A
C166   C170    1.402   .     A
C168   C169    1.499   .     S
C169   C175    1.408   .     A
C170   H171    1.084   .     S
C170   C172    1.412   .     A
C172   C173    1.411   .     A
C172   C184    1.512   .     S
C173   H174    1.083   .     S
C173   C175    1.406   .     A
C175   H176    1.083   .     S
C177   H178    1.080   .     S
C177   C186    1.410   .     A
C177   C180    1.405   1_565 S
O179   C187    1.285   .     A
O179   Nd647   2.324   .     S
C180   H181    1.081   .     S
C180   C190    1.411   .     A
C180   C177    1.405   1_545 S
C182   H183    1.081   .     S
C182   C184    1.414   .     A
C182   C343    1.414   .     A
C184   C447    1.412   .     A
C185   C186    1.508   .     S
C185   C188    1.412   .     A
C185   C612    1.411   .     A
C186   C195    1.413   .     A
C187   C190    1.498   .     S
C188   H189    1.079   .     S
C188   C397    1.415   .     A
C190   C191    1.407   .     A
C191   H192    1.081   .     S
C191   C195    1.404   1_545 S
O193   C194    1.296   .     A
O193   Nd647   2.357   .     S
C194   C199    1.498   .     S
C195   H196    1.081   .     S
C195   C191    1.404   1_565 S
C197   H198    1.085   .     S
C197   C199    1.409   .     A
C197   C205    1.403   .     A
C199   C203    1.406   .     A
C200   C201    1.413   .     A
C200   C209    1.509   .     S
C200   C519    1.412   .     A
C201   H202    1.082   .     S
C201   C253    1.415   .     A
C203   H204    1.083   .     S
C203   C207    1.407   .     A
C205   H206    1.082   .     S
C205   C209    1.410   .     A
C207   H208    1.081   .     S
C207   C209    1.410   .     A
N210   O661    1.353   .     S
N210   O662    1.353   .     S
N210   O663    1.353   .     S
O211   Nd646   2.296   .     S
O212   Nd647   2.294   .     S
In213  O214    2.022   .     S
In213  O215    1.986   .     S
In213  O216    1.996   .     S
In213  O218    1.995   .     S
In213  O426    2.027   .     S
In213  O639    1.971   .     S
O214   Nd637   2.230   .     S
O215   C247    1.280   .     A
O216   C221    1.282   .     A
O217   C221    1.322   .     A
O217   Nd637   2.353   .     S
O218   C240    1.281   .     A
C219   H220    1.080   .     S
C219   C222    1.411   .     A
C219   C223    1.402   .     A
C221   C222    1.499   .     S
C222   C228    1.407   .     A
C223   C225    1.409   .     A
C223   H224    1.082   1_545 A
H224   C223    1.082   1_565 A
C225   C226    1.414   .     A
C225   C237    1.509   1_545 A
C226   H227    1.081   .     S
C226   C228    1.406   .     A
C228   H229    1.083   .     S
C230   H231    1.082   .     S
C230   C233    1.406   .     A
C230   C239    1.414   .     A
O232   C240    1.273   .     A
O232   Nd638   2.282   .     S
C233   H234    1.082   .     S
C233   C243    1.405   .     A
C235   H236    1.079   .     S
C235   C237    1.412   .     A
C235   C608    1.414   .     A
C237   C225    1.509   1_565 A
C238   C239    1.511   .     S
C238   C241    1.412   .     A
C239   C248    1.410   .     A
C240   C243    1.495   .     S
C241   H242    1.078   .     S
C241   C556    1.414   .     A
C243   C244    1.407   .     A
C244   H245    1.084   .     S
C244   C248    1.400   .     A
O246   C247    1.297   .     A
O246   Nd638   2.335   .     S
C247   C252    1.496   .     S
C248   H249    1.083   .     S
C250   H251    1.083   .     S
C250   C252    1.408   .     A
C250   C258    1.405   .     A
C252   C256    1.407   .     A
C253   C254    1.408   .     A
C253   C262    1.507   .     S
C254   H255    1.081   .     S
C254   C518    1.412   .     A
C256   H257    1.082   .     S
C256   C260    1.402   .     A
C258   H259    1.082   .     S
C258   C262    1.412   .     A
C260   H261    1.082   .     S
C260   C262    1.409   .     A
N263   O679    1.353   .     S
N263   O680    1.352   .     S
N263   O681    1.353   .     S
O264   Nd637   2.296   .     S
In266  O267    1.989   .     S
In266  O268    1.989   .     S
In266  O269    1.986   .     S
In266  O271    2.006   .     S
In266  O532    2.026   .     S
In266  O648    1.971   .     S
O267   Nd646   2.215   .     S
O268   C300    1.279   .     A
O269   C274    1.283   .     A
O270   C274    1.321   .     A
O270   Nd646   2.356   .     S
O271   C293    1.274   .     A
C272   H273    1.084   .     S
C272   C275    1.415   .     A
C272   C276    1.409   .     A
C274   C275    1.500   .     S
C275   C281    1.408   .     A
C276   H277    1.079   .     S
C276   C278    1.411   .     A
C278   C279    1.412   .     A
C278   C290    1.512   .     S
C279   H280    1.080   .     S
C279   C281    1.408   .     A
C281   H282    1.078   .     S
C283   H284    1.081   .     S
C283   C286    1.407   .     A
C283   C292    1.415   .     A
O285   C293    1.272   .     A
O285   Nd647   2.293   .     S
C286   H287    1.083   .     S
C286   C296    1.402   .     A
C288   H289    1.080   .     S
C288   C290    1.414   .     A
C288   C502    1.415   .     A
C291   C292    1.512   .     S
C291   C294    1.411   .     A
C292   C301    1.410   .     A
C293   C296    1.489   .     S
C294   H295    1.078   .     S
C294   C450    1.414   .     A
C296   C297    1.408   .     A
C297   H298    1.085   .     S
C297   C301    1.400   .     A
O299   C300    1.295   .     A
O299   Nd647   2.335   .     S
C300   C305    1.495   .     S
C301   H302    1.083   .     S
C303   H304    1.081   .     S
C303   C305    1.409   .     A
C303   C311    1.407   .     A
C305   C309    1.409   .     A
C306   C307    1.411   .     A
C306   C315    1.506   1_455 S
C307   H308    1.081   .     S
C307   C624    1.410   .     A
C309   H310    1.083   .     S
C309   C313    1.403   .     A
C311   H312    1.080   .     S
C311   C315    1.412   .     A
C313   C315    1.409   .     A
C313   H314    1.083   1_655 A
H314   C313    1.083   1_455 A
C315   C306    1.506   1_655 S
N316   O658    1.353   .     S
N316   O659    1.353   .     S
N316   O660    1.353   .     S
In319  O320    2.019   .     S
In319  O321    1.992   .     S
In319  O322    1.996   .     S
In319  O324    1.993   .     S
In319  O585    2.028   .     S
In319  O642    1.971   .     S
O320   Nd640   2.226   .     S
O321   C353    1.281   .     A
O322   C327    1.283   .     A
O323   C327    1.323   .     A
O323   Nd640   2.353   .     S
O324   C346    1.280   .     A
C325   H326    1.081   .     S
C325   C328    1.410   .     A
C325   C329    1.403   .     A
C327   C328    1.499   .     S
C328   C334    1.405   .     A
C329   C331    1.410   .     A
C329   H330    1.082   1_565 A
H330   C329    1.082   1_545 A
C331   C332    1.413   .     A
C331   C343    1.510   1_565 S
C332   H333    1.082   .     S
C332   C334    1.407   .     A
C334   H335    1.082   .     S
C336   H337    1.081   .     S
C336   C345    1.414   .     A
C336   C339    1.407   1_554 A
O338   C346    1.273   .     A
O338   Nd641   2.284   .     S
C339   H340    1.081   .     S
C339   C349    1.405   .     A
C339   C336    1.407   1_556 A
C341   H342    1.083   .     S
C341   C343    1.412   .     A
C341   C449    1.411   .     A
C343   C331    1.510   1_545 S
C344   C345    1.511   .     S
C344   C347    1.411   .     A
C345   C354    1.409   .     A
C346   C349    1.494   .     S
C347   H348    1.078   .     S
C347   C503    1.413   .     A
C349   C350    1.408   .     A
C350   H351    1.083   .     S
C350   C354    1.400   1_556 S
O352   C353    1.297   .     A
O352   Nd641   2.338   .     S
C353   C358    1.499   .     S
C354   H355    1.081   .     S
C354   C350    1.400   1_554 S
C356   H357    1.083   .     S
C356   C358    1.408   .     A
C356   C364    1.408   .     A
C358   C362    1.408   .     A
C359   C360    1.410   .     A
C359   C368    1.507   1_655 A
C360   H361    1.081   .     S
C360   C571    1.413   .     A
C362   H363    1.083   .     S
C362   C366    1.402   .     A
C364   H365    1.083   .     S
C364   C368    1.412   .     A
C366   C368    1.408   .     A
C366   H367    1.082   1_455 A
H367   C366    1.082   1_655 A
C368   C359    1.507   1_455 A
N369   O655    1.353   .     S
N369   O656    1.353   .     S
N369   O657    1.353   .     S
O370   Nd640   2.297   .     S
In372  O373    2.017   .     S
In372  O374    1.992   .     S
In372  O375    1.996   .     S
In372  O377    1.991   .     S
In372  O479    2.027   .     S
In372  O645    1.971   .     S
O373   Nd643   2.226   .     S
O374   C406    1.280   .     A
O375   C380    1.283   .     A
O376   C380    1.323   .     A
O376   Nd643   2.357   .     S
O377   C399    1.280   .     A
C378   H379    1.081   .     S
C378   C381    1.410   .     A
C378   C382    1.403   .     A
C380   C381    1.500   .     S
C381   C387    1.407   .     A
C382   H383    1.082   .     S
C382   C384    1.409   .     A
C384   C385    1.413   .     A
C384   C396    1.511   .     S
C385   H386    1.081   .     S
C385   C387    1.407   .     A
C387   H388    1.083   .     S
C389   H390    1.082   .     S
C389   C398    1.415   .     A
C389   C392    1.408   1_556 A
O391   C399    1.274   .     A
O391   Nd644   2.284   .     S
C392   H393    1.083   .     S
C392   C402    1.405   .     A
C392   C389    1.408   1_554 A
C394   H395    1.079   .     S
C394   C396    1.413   .     A
C394   C555    1.414   .     A
C397   C398    1.509   .     S
C397   C400    1.410   .     A
C398   C407    1.408   .     A
C399   C402    1.492   .     S
C400   H401    1.079   .     S
C400   C609    1.413   .     A
C402   C403    1.407   .     A
C403   H404    1.083   .     S
C403   C407    1.400   1_554 S
O405   C406    1.296   .     A
O405   Nd644   2.334   .     S
C406   C411    1.498   .     S
C407   H408    1.082   .     S
C407   C403    1.400   1_556 S
C409   H410    1.082   .     S
C409   C411    1.408   .     A
C409   C417    1.407   .     A
C411   C415    1.408   .     A
C412   C413    1.410   .     A
C412   C421    1.506   .     S
C413   H414    1.082   .     S
C413   C465    1.413   .     A
C415   H416    1.082   .     S
C415   C419    1.402   .     A
C417   H418    1.083   .     S
C417   C421    1.411   .     A
C419   H420    1.082   .     S
C419   C421    1.408   .     A
N422   O682    1.353   .     S
N422   O683    1.353   .     S
N422   O684    1.353   .     S
O423   Nd643   2.296   .     S
In425  O426    2.028   .     S
In425  O427    1.975   .     S
In425  O428    1.992   .     S
In425  O430    2.005   .     S
In425  O639    1.975   .     S
O426   Nd637   2.254   .     S
O427   C459    1.278   .     A
O428   C433    1.282   .     A
O429   C433    1.322   .     A
O429   Nd637   2.353   .     S
O430   C452    1.282   .     A
C431   H432    1.083   .     S
C431   C434    1.407   .     A
C431   C435    1.402   .     A
C433   C434    1.498   .     S
C434   C440    1.406   .     A
C435   C437    1.408   .     A
C435   H436    1.083   1_554 S
H436   C435    1.083   1_556 S
C437   C438    1.412   .     A
C437   C449    1.509   1_554 A
C438   H439    1.081   .     S
C438   C440    1.405   .     A
C440   H441    1.084   .     S
C442   H443    1.080   .     S
C442   C445    1.407   .     A
C442   C451    1.415   .     A
O444   C452    1.293   .     A
O444   Nd638   2.322   .     S
C445   H446    1.080   .     S
C445   C455    1.403   .     A
C447   H448    1.080   .     S
C447   C449    1.411   .     A
C449   C437    1.509   1_556 A
C450   C451    1.512   .     S
C450   C453    1.411   .     A
C451   C460    1.411   .     A
C452   C455    1.489   .     S
C453   H454    1.078   .     S
C455   C456    1.405   .     A
C456   H457    1.084   .     S
C456   C460    1.400   .     A
O458   C459    1.278   .     A
O458   Nd638   2.304   .     S
C459   C464    1.496   .     S
C460   H461    1.080   .     S
C462   H463    1.084   .     S
C462   C464    1.407   .     A
C462   C470    1.405   .     A
C464   C468    1.407   .     A
C465   C466    1.411   .     A
C465   C474    1.504   .     S
C466   H467    1.081   .     S
C468   H469    1.082   .     S
C468   C472    1.402   .     A
C470   H471    1.083   .     S
C470   C474    1.411   .     A
C472   H473    1.082   .     S
C472   C474    1.409   .     A
N475   O676    1.353   .     S
N475   O677    1.352   .     S
N475   O678    1.353   .     S
O476   Nd637   2.296   .     S
In478  O479    2.027   .     S
In478  O480    1.975   .     S
In478  O481    1.998   .     S
In478  O483    1.996   .     S
In478  O645    1.974   .     S
O479   Nd643   2.254   .     S
O480   C512    1.279   .     A
O481   C486    1.282   .     A
O482   C486    1.322   .     A
O482   Nd643   2.357   .     S
O483   C505    1.280   .     A
C484   H485    1.081   .     S
C484   C487    1.410   .     A
C484   C488    1.404   .     A
C486   C487    1.501   .     S
C487   C493    1.407   .     A
C488   H489    1.082   .     S
C488   C490    1.409   .     A
C490   C491    1.414   .     A
C490   C502    1.513   .     S
C491   H492    1.081   .     S
C491   C493    1.407   .     A
C493   H494    1.083   .     S
C495   H496    1.081   .     S
C495   C498    1.406   .     A
C495   C504    1.414   .     A
O497   C505    1.292   .     A
O497   Nd644   2.319   .     S
C498   H499    1.081   .     S
C498   C508    1.403   .     A
C500   H501    1.080   .     S
C500   C502    1.413   .     A
C503   C504    1.508   .     S
C503   C506    1.410   .     A
C504   C513    1.410   .     A
C505   C508    1.486   .     S
C506   H507    1.079   .     S
C508   C509    1.405   .     A
C509   H510    1.084   .     S
C509   C513    1.399   .     A
O511   C512    1.279   .     A
O511   Nd644   2.303   .     S
C512   C517    1.496   .     S
C513   H514    1.081   .     S
C515   H516    1.081   .     S
C515   C517    1.407   .     A
C515   C523    1.405   .     A
C517   C521    1.408   .     A
C518   C519    1.412   .     A
C518   C527    1.503   1_545 A
C519   H520    1.080   .     S
C521   H522    1.082   .     S
C521   C525    1.402   .     A
C523   H524    1.082   .     S
C523   C527    1.410   .     A
C525   C527    1.409   .     A
C525   H526    1.081   1_565 S
H526   C525    1.081   1_545 S
C527   C518    1.503   1_565 A
N528   O649    1.353   .     S
N528   O650    1.353   .     S
N528   O651    1.353   .     S
O529   Nd643   2.294   .     S
In531  O532    2.033   .     S
In531  O533    1.979   .     S
In531  O534    1.980   .     S
In531  O536    2.003   .     S
In531  O648    1.959   .     S
O532   Nd646   2.257   .     S
O533   C565    1.283   .     A
O534   C539    1.277   .     A
O535   C539    1.348   .     A
O535   Nd646   2.424   .     S
O536   C558    1.280   .     A
C537   H538    1.081   .     S
C537   C540    1.408   .     A
C537   C541    1.405   .     A
C539   C540    1.502   .     S
C540   C546    1.408   .     A
C541   C543    1.412   .     A
C541   H542    1.082   1_556 A
H542   C541    1.082   1_554 A
C543   C544    1.411   .     A
C543   C555    1.513   1_556 A
C544   H545    1.082   .     S
C544   C546    1.408   .     A
C546   H547    1.083   .     S
C548   H549    1.081   .     S
C548   C557    1.415   .     A
C548   C551    1.407   1_455 S
O550   C558    1.290   .     A
O550   Nd647   2.317   .     S
C551   H552    1.083   .     S
C551   C561    1.404   .     A
C551   C548    1.407   1_655 S
C553   H554    1.081   .     S
C553   C555    1.415   .     A
C555   C543    1.513   1_554 A
C556   C557    1.508   .     S
C556   C559    1.408   .     A
C557   C566    1.410   .     A
C558   C561    1.485   .     S
C559   H560    1.081   .     S
C561   C562    1.404   .     A
C562   H563    1.084   .     S
C562   C566    1.398   1_655 A
O564   C565    1.282   .     A
O564   Nd647   2.298   .     S
C565   C570    1.499   .     S
C566   H567    1.080   .     S
C566   C562    1.398   1_455 A
C568   H569    1.083   .     S
C568   C570    1.409   .     A
C568   C576    1.405   .     A
C570   C574    1.408   .     A
C571   C572    1.412   .     A
C571   C580    1.505   1_565 S
C572   H573    1.081   .     S
C574   H575    1.081   .     S
C574   C578    1.401   .     A
C576   H577    1.083   .     S
C576   C580    1.412   .     A
C578   C580    1.409   .     A
C578   H579    1.083   1_545 S
H579   C578    1.083   1_565 S
C580   C571    1.505   1_545 S
N581   O664    1.353   .     S
N581   O665    1.353   .     S
N581   O666    1.353   .     S
O582   Nd646   2.289   .     S
In584  O585    2.028   .     S
In584  O586    1.975   .     S
In584  O587    1.994   .     S
In584  O589    1.998   .     S
In584  O642    1.972   .     S
O585   Nd640   2.252   .     S
O586   C618    1.277   .     A
O587   C592    1.281   .     A
O588   C592    1.322   .     A
O588   Nd640   2.354   .     S
O589   C611    1.281   .     A
C590   H591    1.082   .     S
C590   C593    1.409   .     A
C590   C594    1.403   .     A
C592   C593    1.499   .     S
C593   C599    1.407   .     A
C594   H595    1.082   .     S
C594   C596    1.410   .     A
C596   C597    1.412   .     A
C596   C608    1.510   .     S
C597   H598    1.081   .     S
C597   C599    1.406   .     A
C599   H600    1.082   .     S
C601   H602    1.081   .     S
C601   C610    1.414   .     A
C601   C604    1.405   1_655 S
O603   C611    1.292   .     A
O603   Nd641   2.316   .     S
C604   H605    1.080   .     S
C604   C614    1.402   .     A
C604   C601    1.405   1_455 S
C606   H607    1.081   .     S
C606   C608    1.412   .     A
C609   C610    1.506   .     S
C609   C612    1.409   .     A
C610   C619    1.409   .     A
C611   C614    1.484   .     S
C612   H613    1.079   .     S
C614   C615    1.404   .     A
C615   H616    1.083   .     S
C615   C619    1.399   1_455 S
O617   C618    1.278   .     A
O617   Nd641   2.304   .     S
C618   C623    1.496   .     S
C619   H620    1.081   .     S
C619   C615    1.399   1_655 S
C621   H622    1.082   .     S
C621   C623    1.408   .     A
C621   C629    1.405   .     A
C623   C627    1.407   .     A
C624   C625    1.411   .     A
C624   C633    1.503   .     S
C625   H626    1.082   .     S
C627   H628    1.083   .     S
C627   C631    1.402   .     A
C629   H630    1.083   .     S
C629   C633    1.410   .     A
C631   H632    1.082   .     S
C631   C633    1.408   .     A
N634   O667    1.353   .     S
N634   O668    1.353   .     S
N634   O669    1.352   .     S
O635   Nd640   2.294   .     S
Nd638  O639    2.239   .     S
Nd641  O642    2.237   .     S
Nd644  O645    2.238   .     S
Nd647  O648    2.232   .     S
