#======================================================================

# CRYSTAL DATA

#----------------------------------------------------------------------

data_VESTA_phase_1


_pd_phase_name                         MOF
_cell_length_a                         18.07700
_cell_length_b                         18.09900
_cell_length_c                         19.12900
_cell_angle_alpha                      89.93000
_cell_angle_beta                       90.00600
_cell_angle_gamma                      120.04800
_symmetry_space_group_name_H-M         "P 1"
_symmetry_Int_Tables_number            1

loop_
_symmetry_equiv_pos_as_xyz
   "x, y, z"

loop_
   _atom_site_label
   _atom_site_fract_x
   _atom_site_fract_y
   _atom_site_fract_z
 _atom_site_charge
 Zn1 0.874876 0.510909 0.33033  0.00390006493506
 Zn1 0.635799 0.124663 0.33008  0.00390006493506
 Zn1 0.488491 0.364091 0.33019  0.00390006493506
 Zn1 0.364157 0.489398 0.66975  0.00390006493506
 Zn1 0.511629 0.875604 0.66969  0.00390006493506
 Zn1 0.124593 0.635935 0.66987  0.00390006493506
 Zn2 0.666283 0.333175 0.2641  0.450740064935
 Zn1 0.666013 0.333112 0.06940  0.00390006493506
 Zn2 0.333535 0.666938 0.73581  0.450740064935
 Zn1 0.333278 0.666646 0.93058  0.00390006493506
 H1 0.792925 0.135399 0.43298  0.107441731602
 H1 0.925073 0.204246 0.5054  0.107441731602
 H1 0.981534 0.456239 0.4395  0.107441731602
 H1 0.856033 0.460685 0.99395  0.107441731602
 H1 0.089876 0.655987 0.08975  0.107441731602
 H1 0.023831 0.619513 0.20808  0.107441731602
 H1 0.342215 0.206803 0.43316  0.107441731602
 H1 0.278739 0.074531 0.50552  0.107441731602
 H1 0.474249 0.018107 0.43934  0.107441731602
 H1 0.603344 0.1435 0.99388  0.107441731602
 H1 0.565123 0.90996 0.08989  0.107441731602
 H1 0.59471 0.975777 0.20818  0.107441731602
 H1 0.864389 0.65665 0.43355  0.107441731602
 H1 0.795729 0.720341 0.50554  0.107441731602
 H1 0.543374 0.525977 0.43878  0.107441731602
 H1 0.53868 0.39539 0.99390  0.107441731602
 H1 0.344221 0.434995 0.08995  0.107441731602
 H1 0.380632 0.405426 0.20827  0.107441731602
 H1 0.658618 0.864811 0.56684  0.107441731602
 H1 0.721567 0.795807 0.49446  0.107441731602
 H1 0.524841 0.54392 0.56002  0.107441731602
 H1 0.395658 0.539506 0.  0.107441731602
 H1 0.434009 0.344421 0.91017  0.107441731602
 H1 0.404764 0.381062 0.7918  0.107441731602
 H1 0.135353 0.791854 0.56639  0.107441731602
 H1 0.203955 0.92436 0.49426  0.107441731602
 H1 0.456357 0.982515 0.56115  0.107441731602
 H1 0.459966 0.856514 0.  0.107441731602
 H1 0.655575 0.090427 0.9102  0.107441731602
 H1 0.619976 0.024529 0.79198  0.107441731602
 H1 0.207133 0.343052 0.56710  0.107441731602
 H1 0.074842 0.279442 0.49479  0.107441731602
 H1 0.01748 0.474098 0.56090  0.107441731602
 H1 0.143569 0.605094 0.  0.107441731602
 H1 0.90931 0.564904 0.90989  0.107441731602
 H1 0.975328 0.59405 0.79157  0.107441731602
 C1 0.865927 0.347944 0.39893  0.0969683982684
 C1 0.812898 0.258201 0.39653  0.0969683982684
 C2 0.833866 0.204533 0.43447  -0.143771601732
 C2 0.907706 0.24365 0.47412  -0.143771601732
 C3 0.96129 0.334357 0.47763  0.0524858982684
 C2 0.940708 0.387063 0.43925  -0.143771601732
 C1 0.902361 0.519533 0.16671  0.0969683982684
 C1 0.855536 0.476291 0.10634  0.0969683982684
 C2 0.892564 0.496388 0.03951  -0.143771601732
 C3 0.977842 0.560669 0.03429  0.0524858982684
 C2 0.023995 0.604533 0.09577  -0.143771601732
 C2 0.988047 0.585369 0.16175  -0.143771601732
 C1 0.481726 0.133807 0.39891  0.0969683982684
 C1 0.444988 0.186789 0.39654  0.0969683982684
 C2 0.370327 0.165806 0.43455  -0.143771601732
 C2 0.335527 0.091932 0.47416  -0.143771601732
 C3 0.37263 0.03835 0.47756  0.0524858982684
 C2 0.445977 0.05898 0.43917  -0.143771601732
 C1 0.616035 0.097102 0.16670  0.0969683982684
 C1 0.619664 0.143954 0.10629  0.0969683982684
 C2 0.602622 0.10702 0.03948  -0.143771601732
 C3 0.581671 0.021877 0.0343  0.0524858982684
 C2 0.579426 0.975702 0.09587  -0.143771601732
 C2 0.596225 0.011551 0.16182  -0.143771601732
 C1 0.651579 0.518002 0.39883  0.0969683982684
 C1 0.741385 0.554432 0.39667  0.0969683982684
 C2 0.795223 0.628844 0.43472  -0.143771601732
 C2 0.756217 0.663776 0.47412  -0.143771601732
 C3 0.665452 0.627116 0.47722  0.0524858982684
 C2 0.612576 0.553962 0.43882  -0.143771601732
 C1 0.480185 0.3834 0.16678  0.0969683982684
 C1 0.523249 0.379591 0.1063  0.0969683982684
 C2 0.50316 0.396473 0.03951  -0.143771601732
 C3 0.439137 0.417749 0.03436  0.0524858982684
 C2 0.39549 0.420356 0.09591  -0.143771601732
 C2 0.414609 0.403543 0.1618  -0.143771601732
 C1 0.518028 0.652318 0.60060  0.0969683982684
 C1 0.555213 0.742083 0.60321  0.0969683982684
 C2 0.630085 0.79566 0.56533  -0.143771601732
 C2 0.664612 0.756452 0.52568  -0.143771601732
 C3 0.627106 0.665732 0.5221  0.0524858982684
 C2 0.553508 0.61311 0.5603  -0.143771601732
 C1 0.383355 0.480924 0.83320  0.0969683982684
 C1 0.3797 0.524036 0.89357  0.0969683982684
 C2 0.396501 0.503883 0.96043  -0.143771601732
 C3 0.417385 0.439642 0.96564  0.0524858982684
 C2 0.419722 0.395878 0.90415  -0.143771601732
 C2 0.403091 0.41513 0.83816  -0.143771601732
 C1 0.348197 0.866286 0.60128  0.0969683982684
 C1 0.258399 0.812759 0.60331  0.0969683982684
 C2 0.204511 0.833283 0.56518  -0.143771601732
 C2 0.243479 0.907279 0.52572  -0.143771601732
 C3 0.334242 0.961404 0.52260  0.0524858982684
 C2 0.387161 0.941239 0.56115  -0.143771601732
 C1 0.519836 0.903005 0.83332  0.0969683982684
 C1 0.476254 0.856151 0.89366  0.0969683982684
 C2 0.495902 0.893083 0.96047  -0.143771601732
 C3 0.560069 0.978315 0.96567  0.0524858982684
 C2 0.604233 0.024569 0.90422  -0.143771601732
 C2 0.585543 0.988665 0.83828  -0.143771601732
 C1 0.133464 0.48192 0.60124  0.0969683982684
 C1 0.186668 0.445416 0.6036  0.0969683982684
 C2 0.165925 0.370945 0.56570  -0.143771601732
 C2 0.092023 0.336057 0.52613  -0.143771601732
 C3 0.038152 0.372862 0.5227  0.0524858982684
 C2 0.058552 0.446028 0.56107  -0.143771601732
 C1 0.096985 0.61635 0.83320  0.0969683982684
 C1 0.143958 0.620559 0.89368  0.0969683982684
 C2 0.106943 0.603836 0.96052  -0.143771601732
 C3 0.021546 0.582438 0.96559  0.0524858982684
 C2 0.975268 0.579564 0.9039  -0.143771601732
 C2 0.011185 0.596125 0.83801  -0.143771601732
 N1 0.745831 0.241419 0.35366  -0.0933782683983
 N2 0.757126 0.316604 0.3310  -0.0283999350649
 N1 0.829068 0.381804 0.35711  -0.0933782683983
 N1 0.849089 0.484073 0.22266  -0.0933782683983
 N2 0.773867 0.422323 0.19805  -0.0283999350649
 N1 0.775682 0.416124 0.12829  -0.0933782683983
 N1 0.495258 0.253822 0.35361  -0.0933782683983
 N2 0.559224 0.242595 0.33105  -0.0283999350649
 N1 0.552563 0.170749 0.35716  -0.0933782683983
 N1 0.633941 0.150268 0.22261  -0.0933782683983
 N2 0.647631 0.225515 0.19794  -0.0283999350649
 N1 0.639606 0.223757 0.12817  -0.0933782683983
 N1 0.758073 0.504141 0.35388  -0.0933782683983
 N2 0.682767 0.440371 0.33123  -0.0283999350649
 N1 0.617572 0.447244 0.35716  -0.0933782683983
 N1 0.515541 0.365488 0.2227  -0.0933782683983
 N2 0.577097 0.351757 0.19805  -0.0283999350649
 N1 0.583226 0.3597 0.1282  -0.0933782683983
 N1 0.505088 0.758921 0.64619  -0.0933782683983
 N2 0.440818 0.683714 0.66862  -0.0283999350649
 N1 0.447139 0.618473 0.64232  -0.0933782683983
 N1 0.365607 0.516366 0.77724  -0.0933782683983
 N2 0.3521 0.578001 0.8018  -0.0283999350649
 N1 0.360047 0.584127 0.8716  -0.0933782683983
 N1 0.241725 0.745684 0.64609  -0.0933782683983
 N2 0.317022 0.757409 0.66899  -0.0283999350649
 N1 0.382215 0.829645 0.64318  -0.0933782683983
 N1 0.484744 0.849784 0.77740  -0.0933782683983
 N2 0.422897 0.774567 0.80200  -0.0283999350649
 N1 0.416295 0.776347 0.87173  -0.0933782683983
 N1 0.253704 0.495733 0.64647  -0.0933782683983
 N2 0.242344 0.559554 0.66894  -0.0283999350649
 N1 0.170346 0.552703 0.64286  -0.0933782683983
 N1 0.150276 0.634101 0.77729  -0.0933782683983
 N2 0.225701 0.648195 0.80201  -0.0283999350649
 N1 0.223941 0.640613 0.87183  -0.0933782683983
