#======================================================================

# CRYSTAL DATA

#----------------------------------------------------------------------

data_VESTA_phase_1


_pd_phase_name                         MOF
_cell_length_a                         16.34100
_cell_length_b                         18.07800
_cell_length_c                         18.06600
_cell_angle_alpha                      68.74500
_cell_angle_beta                       72.54700
_cell_angle_gamma                      107.43000
_symmetry_space_group_name_H-M         "P 1"
_symmetry_Int_Tables_number            1

loop_
_symmetry_equiv_pos_as_xyz
   "x, y, z"

loop_
   _atom_site_label
   _atom_site_fract_x
   _atom_site_fract_y
   _atom_site_fract_z
 _atom_site_charge
 Fe1 5e-06 3e-05 0.49999  0.33139503268
 Fe1 0.500001 0.500052 0.49998  0.33139503268
 Fe1 0.999996 0.500032 6e-0  0.33139503268
 Fe1 0.999998 0.500041 0.49999  0.33139503268
 Fe1 0.499996 3.1e-05 0.49999  0.33139503268
 Fe1 0.500007 0.500045 0.99999  0.33139503268
 H1 0.857302 0.072478 0.733  0.0981476368464
 H1 0.688306 0.94564 0.81295  0.0981476368464
 H1 0.652425 0.840801 0.75267  0.0981476368464
 H1 0.784103 0.865931 0.61750  0.0981476368464
 H1 0.338562 0.261055 0.43381  0.0981476368464
 H1 0.474001 0.379109 0.42298  0.0981476368464
 H1 0.286987 0.440216 0.57476  0.0981476368464
 H1 0.1439 0.320982 0.59  0.0981476368464
 H1 0.587283 0.732663 0.19596  0.0981476368464
 H1 0.498341 0.812878 0.24395  0.0981476368464
 H1 0.403698 0.753073 0.4088  0.0981476368464
 H1 0.401338 0.617929 0.51781  0.0981476368464
 H1 0.772867 0.434821 0.3045  0.0981476368464
 H1 0.898023 0.424099 0.19739  0.0981476368464
 H1 0.86094 0.57431 0.98518  0.0981476368464
 H1 0.737276 0.594195 0.08418  0.0981476368464
 H1 0.782703 0.196336 0.07148  0.0981476368464
 H1 0.741617 0.244308 0.94336  0.0981476368464
 H1 0.812473 0.409027 0.83804  0.0981476368464
 H1 0.919533 0.517893 0.86405  0.0981476368464
 H1 0.078167 0.304223 0.26001  0.0981476368464
 H1 0.095837 0.197042 0.37821  0.0981476368464
 H1 0.845824 0.986155 0.44093  0.0981476368464
 H1 0.821405 0.085168 0.32181  0.0981476368464
 H1 0.142716 0.9276 0.26679  0.0981476368464
 H1 0.311717 0.054425 0.18705  0.0981476368464
 H1 0.347599 0.159248 0.24735  0.0981476368464
 H1 0.215907 0.134123 0.38251  0.0981476368464
 H1 0.661466 0.739062 0.56613  0.0981476368464
 H1 0.52601 0.62104 0.57694  0.0981476368464
 H1 0.713 0.559848 0.42524  0.0981476368464
 H1 0.856097 0.679073 0.40501  0.0981476368464
 H1 0.412765 0.267529 0.80400  0.0981476368464
 H1 0.501651 0.187247 0.75607  0.0981476368464
 H1 0.59622 0.246955 0.59120  0.0981476368464
 H1 0.598607 0.382092 0.48218  0.0981476368464
 H1 0.227085 0.565237 0.69548  0.0981476368464
 H1 0.101942 0.57596 0.80263  0.0981476368464
 H1 0.139043 0.42574 0.01482  0.0981476368464
 H1 0.262719 0.40588 0.91581  0.0981476368464
 H1 0.217361 0.803715 0.92848  0.0981476368464
 H1 0.258374 0.755734 0.05665  0.0981476368464
 H1 0.187436 0.591012 0.16202  0.0981476368464
 H1 0.080374 0.482158 0.13600  0.0981476368464
 H1 0.921844 0.695843 0.73996  0.0981476368464
 H1 0.904191 0.803029 0.62176  0.0981476368464
 H1 0.154185 0.013911 0.55907  0.0981476368464
 H1 0.1786 0.91489 0.67819  0.0981476368464
 H1 0.911859 0.195994 0.73281  0.0981476368464
 H1 0.0 0.243564 0.81332  0.0981476368464
 H1 0.095341 0.408248 0.75376  0.0981476368464
 H1 0.098003 0.517426 0.61850  0.0981476368464
 H1 0.727415 0.304745 0.43377  0.0981476368464
 H1 0.602269 0.19746 0.42334  0.0981476368464
 H1 0.638664 0.985501 0.57493  0.0981476368464
 H1 0.762174 0.084653 0.59470  0.0981476368464
 H1 0.717649 0.071894 0.19592  0.0981476368464
 H1 0.759162 0.94413 0.24378  0.0981476368464
 H1 0.688323 0.838778 0.40860  0.0981476368464
 H1 0.580902 0.864456 0.51767  0.0981476368464
 H1 0.42115 0.259364 0.30410  0.0981476368464
 H1 0.403771 0.377822 0.19695  0.0981476368464
 H1 0.654199 0.440961 0.98597  0.0981476368464
 H1 0.678505 0.321735 0.0849  0.0981476368464
 H1 0.643444 0.733034 0.07221  0.0981476368464
 H1 0.81222 0.812656 0.94494  0.0981476368464
 H1 0.847696 0.752278 0.84008  0.0981476368464
 H1 0.715803 0.617191 0.86557  0.0981476368464
 H1 0.162199 0.434053 0.26098  0.0981476368464
 H1 0.02644 0.42314 0.37898  0.0981476368464
 H1 0.212843 0.574176 0.44100  0.0981476368464
 H1 0.356183 0.594409 0.32189  0.0981476368464
 H1 0.088115 0.804095 0.26715  0.0981476368464
 H1 0.999347 0.756485 0.18665  0.0981476368464
 H1 0.904667 0.591797 0.24623  0.0981476368464
 H1 0.902011 0.48265 0.38151  0.0981476368464
 H1 0.272541 0.695309 0.56627  0.0981476368464
 H1 0.397704 0.802601 0.57667  0.0981476368464
 H1 0.361349 0.014566 0.42504  0.0981476368464
 H1 0.237824 0.915406 0.40528  0.0981476368464
 H1 0.282324 0.928135 0.80408  0.0981476368464
 H1 0.240798 0.055892 0.75624  0.0981476368464
 H1 0.311669 0.161294 0.59144  0.0981476368464
 H1 0.4191 0.135643 0.48234  0.0981476368464
 H1 0.578861 0.740733 0.69589  0.0981476368464
 H1 0.596251 0.622276 0.80304  0.0981476368464
 H1 0.34579 0.559096 0.01402  0.0981476368464
 H1 0.321486 0.678325 0.91501  0.0981476368464
 H1 0.356596 0.267009 0.9278  0.0981476368464
 H1 0.187802 0.187394 0.05506  0.0981476368464
 H1 0.152291 0.247814 0.15988  0.0981476368464
 H1 0.28417 0.382909 0.13439  0.0981476368464
 H1 0.837812 0.565901 0.739  0.0981476368464
 H1 0.973554 0.576791 0.62110  0.0981476368464
 H1 0.787165 0.426011 0.55889  0.0981476368464
 H1 0.643823 0.405737 0.67803  0.0981476368464
 C1 0.006913 0.100535 0.58804  0.289174199346
 C1 0.146159 0.203566 0.53330  0.289174199346
 C2 0.907457 0.033338 0.63712  0.131868366013
 C3 0.837293 0.024055 0.71153  -0.138280800654
 C3 0.744356 0.954369 0.75464  -0.138280800654
 C3 0.724093 0.896254 0.72121  -0.138280800654
 C4 0.796881 0.90934 0.64622  0.115712810458
 C5 0.228155 0.278475 0.51779  0.0558316993464
 C3 0.323917 0.299083 0.46643  -0.138280800654
 C4 0.400122 0.365306 0.46003  0.115712810458
 C4 0.295894 0.398708 0.54507  0.115712810458
 C3 0.216064 0.33222 0.55593  -0.138280800654
 C1 0.593353 0.587752 0.31187  0.289174199346
 C1 0.678378 0.533167 0.26302  0.289174199346
 C2 0.542819 0.636919 0.33053  0.131868366013
 C3 0.546334 0.711264 0.26598  -0.138280800654
 C3 0.496618 0.754586 0.29306  -0.138280800654
 C3 0.443778 0.721437 0.38448  -0.138280800654
 C4 0.442229 0.64647 0.44579  0.115712810458
 C5 0.745266 0.517828 0.20351  0.0558316993464
 C3 0.790497 0.467038 0.23406  -0.138280800654
 C4 0.860617 0.460732 0.17430  0.115712810458
 C4 0.840375 0.544888 0.05622  0.115712810458
 C3 0.770974 0.555568 0.11184  -0.138280800654
 C1 0.905613 0.312096 0.10004  0.289174199346
 C1 0.941914 0.263261 0.20340  0.289174199346
 C2 0.873552 0.330744 0.03233  0.131868366013
 C3 0.812117 0.266275 0.02271  -0.138280800654
 C3 0.789362 0.29335 0.95238  -0.138280800654
 C3 0.828239 0.38468 0.89  -0.138280800654
 C4 0.888318 0.445932 0.90752  0.115712810458
 C5 0.949208 0.203813 0.27834  0.0558316993464
 C3 0.025137 0.234028 0.2984  -0.138280800654
 C4 0.035285 0.17425 0.36471  0.115712810458
 C4 0.896533 0.0569 0.39907  0.115712810458
 C3 0.882921 0.112542 0.33260  -0.138280800654
 C1 0.993099 0.899544 0.41194  0.289174199346
 C1 0.853854 0.79651 0.4666  0.289174199346
 C2 0.092554 0.966742 0.36286  0.131868366013
 C3 0.162722 0.976023 0.28845  -0.138280800654
 C3 0.255663 0.045697 0.24536  -0.138280800654
 C3 0.275927 0.103803 0.27880  -0.138280800654
 C4 0.203131 0.090721 0.35378  0.115712810458
 C5 0.771858 0.721609 0.48219  0.0558316993464
 C3 0.676099 0.701025 0.53353  -0.138280800654
 C4 0.599885 0.634817 0.53992  0.115712810458
 C4 0.704101 0.601367 0.45492  0.115712810458
 C3 0.783935 0.667845 0.44407  -0.138280800654
 C1 0.406673 0.412381 0.68808  0.289174199346
 C1 0.321614 0.466926 0.73696  0.289174199346
 C2 0.457212 0.363217 0.66943  0.131868366013
 C3 0.453695 0.288884 0.73399  -0.138280800654
 C3 0.503366 0.24552 0.70694  -0.138280800654
 C3 0.556176 0.278627 0.61553  -0.138280800654
 C4 0.557731 0.353582 0.55419  0.115712810458
 C5 0.254711 0.482241 0.79648  0.0558316993464
 C3 0.209463 0.533019 0.76595  -0.138280800654
 C4 0.139353 0.539328 0.82571  0.115712810458
 C4 0.159608 0.45517 0.94378  0.115712810458
 C3 0.229012 0.444499 0.8881  -0.138280800654
 C1 0.094403 0.687962 0.89994  0.289174199346
 C1 0.058087 0.736799 0.796  0.289174199346
 C2 0.126464 0.66931 0.96766  0.131868366013
 C3 0.187912 0.733775 0.97727  -0.138280800654
 C3 0.210623 0.706695 0.04763  -0.138280800654
 C3 0.171705 0.615366 0.10604  -0.138280800654
 C4 0.11162 0.554119 0.0925  0.115712810458
 C5 0.050798 0.796249 0.72165  0.0558316993464
 C3 0.974876 0.766038 0.70154  -0.138280800654
 C4 0.964735 0.825819 0.63526  0.115712810458
 C4 0.103477 0.943166 0.6009  0.115712810458
 C3 0.117086 0.887521 0.66739  -0.138280800654
 C1 0.906235 0.312089 0.58771  0.289174199346
 C1 0.821453 0.263415 0.53287  0.289174199346
 C2 0.956592 0.330556 0.6370  0.131868366013
 C3 0.9529 0.265912 0.71149  -0.138280800654
 C3 0.0 0.292761 0.75499  -0.138280800654
 C3 0.055379 0.384065 0.72196  -0.138280800654
 C4 0.057079 0.445494 0.64694  0.115712810458
 C5 0.754618 0.203899 0.51754  0.0558316993464
 C3 0.709631 0.234306 0.46639  -0.138280800654
 C4 0.639513 0.174445 0.46022  0.115712810458
 C4 0.659345 0.056516 0.54516  0.115712810458
 C3 0.728684 0.112233 0.55576  -0.138280800654
 C1 0.594342 0.100053 0.31190  0.289174199346
 C1 0.557763 0.203153 0.26311  0.289174199346
 C2 0.626644 0.032551 0.33049  0.131868366013
 C3 0.688269 0.023125 0.26589  -0.138280800654
 C3 0.711241 0.952985 0.29291  -0.138280800654
 C3 0.672385 0.894596 0.38430  -0.138280800654
 C4 0.6121 0.907927 0.44567  0.115712810458
 C5 0.550439 0.278035 0.2036  0.0558316993464
 C3 0.47437 0.297981 0.2339  -0.138280800654
 C4 0.464366 0.364371 0.17414  0.115712810458
 C4 0.603379 0.398985 0.05674  0.115712810458
 C3 0.616904 0.332449 0.1123  -0.138280800654
 C1 0.493521 0.587994 0.100  0.289174199346
 C1 0.354346 0.533277 0.20386  0.289174199346
 C2 0.592925 0.636999 0.03320  0.131868366013
 C3 0.663237 0.711364 0.02373  -0.138280800654
 C3 0.756067 0.754372 0.95382  -0.138280800654
 C3 0.776111 0.720899 0.89569  -0.138280800654
 C4 0.703202 0.645953 0.90898  0.115712810458
 C5 0.272289 0.517683 0.27885  0.0558316993464
 C3 0.176608 0.46648 0.2992  -0.138280800654
 C4 0.100245 0.460035 0.36539  0.115712810458
 C4 0.204137 0.544674 0.39930  0.115712810458
 C3 0.284114 0.555533 0.3328  -0.138280800654
 C1 0.093731 0.688001 0.41230  0.289174199346
 C1 0.178521 0.736656 0.46714  0.289174199346
 C2 0.043391 0.669538 0.36292  0.131868366013
 C3 0.047088 0.73417 0.28849  -0.138280800654
 C3 0.997494 0.707301 0.24499  -0.138280800654
 C3 0.944631 0.615995 0.27802  -0.138280800654
 C4 0.942923 0.554584 0.35306  0.115712810458
 C5 0.245359 0.796162 0.48248  0.0558316993464
 C3 0.290339 0.765751 0.53363  -0.138280800654
 C4 0.360463 0.825617 0.53979  0.115712810458
 C4 0.340652 0.943549 0.45483  0.115712810458
 C3 0.271308 0.88783 0.44423  -0.138280800654
 C1 0.405645 0.90001 0.68808  0.289174199346
 C1 0.442234 0.796923 0.73688  0.289174199346
 C2 0.373344 0.967512 0.66950  0.131868366013
 C3 0.311707 0.97692 0.73411  -0.138280800654
 C3 0.288733 0.047059 0.70710  -0.138280800654
 C3 0.327608 0.105473 0.61572  -0.138280800654
 C4 0.387894 0.092153 0.55434  0.115712810458
 C5 0.449561 0.722044 0.79634  0.0558316993464
 C3 0.525635 0.702105 0.76609  -0.138280800654
 C4 0.535649 0.635719 0.82585  0.115712810458
 C4 0.396615 0.60108 0.9432  0.115712810458
 C3 0.383088 0.667614 0.88763  -0.138280800654
 C1 0.506493 0.412065 0.89941  0.289174199346
 C1 0.645661 0.466779 0.79614  0.289174199346
 C2 0.407085 0.363069 0.96680  0.131868366013
 C3 0.336782 0.288694 0.97628  -0.138280800654
 C3 0.243945 0.245687 0.04618  -0.138280800654
 C3 0.223883 0.279191 0.10427  -0.138280800654
 C4 0.296787 0.354138 0.09099  0.115712810458
 C5 0.727718 0.482365 0.72115  0.0558316993464
 C3 0.823395 0.533508 0.70083  -0.138280800654
 C4 0.899752 0.539955 0.63465  0.115712810458
 C4 0.79587 0.45546 0.60063  0.115712810458
 C3 0.715889 0.444572 0.66708  -0.138280800654
 N1 0.065081 0.094193 0.52113  -0.0685766339869
 N2 0.155616 0.160371 0.48552  -0.389743300654
 N3 0.054464 0.168232 0.59797  -0.506843300654
 N4 0.887901 0.976317 0.60400  -0.203749133987
 N4 0.388196 0.414886 0.49991  -0.203749133987
 N1 0.585376 0.520999 0.38465  -0.0685766339869
 N2 0.640622 0.485491 0.3537  -0.389743300654
 N3 0.65064 0.597655 0.23419  -0.506843300654
 N4 0.490939 0.604047 0.42056  -0.203749133987
 N4 0.888169 0.500211 0.08506  -0.203749133987
 N1 0.970556 0.384758 0.09397  -0.0685766339869
 N2 0.994982 0.353835 0.16033  -0.389743300654
 N3 0.885204 0.234495 0.16781  -0.506843300654
 N4 0.911845 0.420702 0.97514  -0.203749133987
 N4 0.973277 0.085336 0.41477  -0.203749133987
 N1 0.934931 0.905882 0.47885  -0.0685766339869
 N2 0.844396 0.83971 0.51446  -0.389743300654
 N3 0.945547 0.831846 0.40201  -0.506843300654
 N4 0.112108 0.023755 0.39599  -0.203749133987
 N4 0.611808 0.585225 0.50006  -0.203749133987
 N1 0.414611 0.479112 0.6153  -0.0685766339869
 N2 0.359342 0.514598 0.64626  -0.389743300654
 N3 0.34939 0.402466 0.76577  -0.506843300654
 N4 0.509068 0.396046 0.57940  -0.203749133987
 N4 0.111811 0.499848 0.91495  -0.203749133987
 N1 0.029418 0.615302 0.90605  -0.0685766339869
 N2 0.004986 0.646226 0.83969  -0.389743300654
 N3 0.114835 0.76556 0.83216  -0.506843300654
 N4 0.08813 0.579352 0.02487  -0.203749133987
 N4 0.026738 0.914735 0.58521  -0.203749133987
 N1 0.914524 0.384877 0.52075  -0.0685766339869
 N2 0.859435 0.354063 0.48505  -0.389743300654
 N3 0.848902 0.234519 0.59760  -0.506843300654
 N4 0.008533 0.420473 0.60431  -0.203749133987
 N4 0.611764 0.085236 0.50013  -0.203749133987
 N1 0.529255 0.093843 0.38466  -0.0685766339869
 N2 0.504642 0.160038 0.35376  -0.389743300654
 N3 0.61468 0.167753 0.23427  -0.506843300654
 N4 0.588365 0.975371 0.42050  -0.203749133987
 N4 0.526592 0.414637 0.0852  -0.203749133987
 N1 0.435262 0.521184 0.09428  -0.0685766339869
 N2 0.344794 0.485603 0.1605  -0.389743300654
 N3 0.446055 0.597874 0.1684  -0.506843300654
 N4 0.612266 0.603833 0.9761  -0.203749133987
 N4 0.111947 0.499755 0.41514  -0.203749133987
 N1 0.085437 0.615198 0.47925  -0.0685766339869
 N2 0.140529 0.646007 0.51495  -0.389743300654
 N3 0.151078 0.765563 0.40241  -0.506843300654
 N4 0.991463 0.579616 0.39569  -0.203749133987
 N4 0.388229 0.914829 0.49986  -0.203749133987
 N1 0.47073 0.906218 0.61533  -0.0685766339869
 N2 0.495352 0.840029 0.64623  -0.389743300654
 N3 0.385312 0.832319 0.7657  -0.506843300654
 N4 0.411625 0.024704 0.57949  -0.203749133987
 N4 0.473415 0.585445 0.91477  -0.203749133987
 N1 0.564752 0.478884 0.9057  -0.0685766339869
 N2 0.655221 0.514469 0.83940  -0.389743300654
 N3 0.553954 0.402175 0.8315  -0.506843300654
 N4 0.387731 0.396246 0.02383  -0.203749133987
 N4 0.888057 0.500312 0.5848  -0.203749133987
