#======================================================================

# CRYSTAL DATA

#----------------------------------------------------------------------

data_VESTA_phase_1


_pd_phase_name                         MOF
_cell_length_a                         13.96800
_cell_length_b                         15.51200
_cell_length_c                         19.52300
_cell_angle_alpha                      90.00000
_cell_angle_beta                       102.06100
_cell_angle_gamma                      90.00000
_symmetry_space_group_name_H-M         "P 1"
_symmetry_Int_Tables_number            1

loop_
_symmetry_equiv_pos_as_xyz
   "x, y, z"

loop_
   _atom_site_label
   _atom_site_fract_x
   _atom_site_fract_y
   _atom_site_fract_z
 _atom_site_charge
 Cd1 0.999945 5e-06 0.99998  0.974565294118
 Cd1 0.999949 0.99999 0.49997  0.974565294118
 Cd1 0.999941 0.499993 0.99998  0.974565294118
 Cd1 0.999944 0.500004 0.49997  0.974565294118
 Cd1 0.499951 0.999995 0.99999  0.974565294118
 Cd1 0.499951 4e-06 0.49998  0.974565294118
 Cd1 0.499947 0.499988 0.49998  0.974565294118
 Cd1 0.499947 0.500006 0.99999  0.974565294118
 Ni1 0.249573 0.249999 0.99989  -0.0129047058824
 Ni1 0.249545 0.249997 0.4998  -0.0129047058824
 Ni1 0.249554 0.749994 0.99987  -0.0129047058824
 Ni1 0.249558 0.749996 0.49988  -0.0129047058824
 Ni1 0.750272 0.249994 0.  -0.0129047058824
 Ni1 0.750296 0.249997 0.50006  -0.0129047058824
 Ni1 0.750275 0.749999 6.7e-0  -0.0129047058824
 Ni1 0.750247 0.749996 0.50005  -0.0129047058824
 H1 0.006096 0.052852 0.13725  0.291930294118
 H1 0.006098 0.052844 0.63724  0.291930294118
 H1 0.006093 0.552849 0.13724  0.291930294118
 H1 0.006093 0.552848 0.63724  0.291930294118
 H1 0.506227 0.052853 0.13728  0.291930294118
 H1 0.506229 0.052848 0.63727  0.291930294118
 H1 0.506226 0.552852 0.13728  0.291930294118
 H1 0.50623 0.55284 0.63727  0.291930294118
 H2 0.329789 0.056597 0.09734  0.070106127451
 H2 0.32979 0.056591 0.59733  0.070106127451
 H2 0.329787 0.556599 0.09734  0.070106127451
 H2 0.329792 0.556588 0.59734  0.070106127451
 H2 0.829642 0.056594 0.09737  0.070106127451
 H2 0.829646 0.056589 0.59736  0.070106127451
 H2 0.82964 0.55659 0.09737  0.070106127451
 H2 0.829639 0.556587 0.59736  0.070106127451
 H2 0.398171 0.056986 0.22766  0.070106127451
 H2 0.398174 0.056978 0.72765  0.070106127451
 H2 0.39817 0.556985 0.22766  0.070106127451
 H2 0.398173 0.556978 0.72765  0.070106127451
 H2 0.898077 0.056983 0.22768  0.070106127451
 H2 0.898078 0.056977 0.72767  0.070106127451
 H2 0.898075 0.556983 0.22768  0.070106127451
 H2 0.898074 0.556978 0.72767  0.070106127451
 H2 0.21536 0.056715 0.18458  0.070106127451
 H2 0.215363 0.056707 0.68458  0.070106127451
 H2 0.215358 0.556715 0.1845  0.070106127451
 H2 0.215361 0.556707 0.68458  0.070106127451
 H2 0.715265 0.056714 0.1846  0.070106127451
 H2 0.715266 0.056711 0.68462  0.070106127451
 H2 0.715264 0.556715 0.18463  0.070106127451
 H2 0.715263 0.556708 0.68462  0.070106127451
 H1 0.493739 0.052849 0.36269  0.291930294118
 H1 0.493743 0.052845 0.86269  0.291930294118
 H1 0.493734 0.552843 0.36269  0.291930294118
 H1 0.49374 0.552845 0.86268  0.291930294118
 H1 0.993862 0.052846 0.3627  0.291930294118
 H1 0.993867 0.052844 0.86270  0.291930294118
 H1 0.99386 0.552853 0.36271  0.291930294118
 H1 0.993862 0.552841 0.86271  0.291930294118
 H2 0.17031 0.056591 0.40262  0.070106127451
 H2 0.170317 0.056587 0.90261  0.070106127451
 H2 0.170309 0.556599 0.40262  0.070106127451
 H2 0.170311 0.556584 0.90261  0.070106127451
 H2 0.670174 0.056592 0.40265  0.070106127451
 H2 0.670178 0.056589 0.90264  0.070106127451
 H2 0.670168 0.556593 0.40265  0.070106127451
 H2 0.670176 0.556593 0.90264  0.070106127451
 H2 0.101897 0.056983 0.27230  0.070106127451
 H2 0.101901 0.056976 0.77229  0.070106127451
 H2 0.101896 0.556983 0.27230  0.070106127451
 H2 0.101898 0.556975 0.77230  0.070106127451
 H2 0.601805 0.056983 0.27233  0.070106127451
 H2 0.601806 0.056979 0.77232  0.070106127451
 H2 0.601802 0.556983 0.27233  0.070106127451
 H2 0.601804 0.556977 0.77232  0.070106127451
 H2 0.284707 0.056716 0.31536  0.070106127451
 H2 0.284711 0.056708 0.81535  0.070106127451
 H2 0.284706 0.556718 0.31536  0.070106127451
 H2 0.284708 0.556709 0.81536  0.070106127451
 H2 0.784616 0.056712 0.31540  0.070106127451
 H2 0.784618 0.056708 0.81540  0.070106127451
 H2 0.784613 0.556714 0.31540  0.070106127451
 H2 0.784615 0.556709 0.81540  0.070106127451
 H1 0.493737 0.447143 0.36269  0.291930294118
 H1 0.493742 0.447145 0.86269  0.291930294118
 H1 0.493737 0.947147 0.36269  0.291930294118
 H1 0.493742 0.947143 0.86268  0.291930294118
 H1 0.993863 0.447149 0.36272  0.291930294118
 H1 0.993863 0.447137 0.86271  0.291930294118
 H1 0.993864 0.94714 0.36271  0.291930294118
 H1 0.993866 0.947138 0.86271  0.291930294118
 H2 0.170311 0.44341 0.40262  0.070106127451
 H2 0.170312 0.443395 0.90261  0.070106127451
 H2 0.170313 0.9434 0.40261  0.070106127451
 H2 0.170314 0.943395 0.90261  0.070106127451
 H2 0.670173 0.443403 0.40265  0.070106127451
 H2 0.670176 0.443402 0.90264  0.070106127451
 H2 0.670171 0.943399 0.40265  0.070106127451
 H2 0.670178 0.943397 0.90264  0.070106127451
 H2 0.101898 0.443015 0.27231  0.070106127451
 H2 0.101899 0.443007 0.772  0.070106127451
 H2 0.101898 0.943013 0.27230  0.070106127451
 H2 0.101901 0.943006 0.77229  0.070106127451
 H2 0.601803 0.443013 0.27233  0.070106127451
 H2 0.601805 0.443008 0.77232  0.070106127451
 H2 0.601804 0.943012 0.27233  0.070106127451
 H2 0.601805 0.943008 0.77232  0.070106127451
 H2 0.284708 0.443285 0.31536  0.070106127451
 H2 0.284709 0.443276 0.81536  0.070106127451
 H2 0.284707 0.943281 0.31536  0.070106127451
 H2 0.284711 0.943273 0.81535  0.070106127451
 H2 0.784615 0.443285 0.3154  0.070106127451
 H2 0.784616 0.44328 0.81540  0.070106127451
 H2 0.784616 0.943282 0.31540  0.070106127451
 H2 0.784616 0.943277 0.81540  0.070106127451
 H1 0.006093 0.447144 0.13725  0.291930294118
 H1 0.006095 0.447143 0.63724  0.291930294118
 H1 0.006096 0.947145 0.13724  0.291930294118
 H1 0.006095 0.947137 0.63724  0.291930294118
 H1 0.506224 0.44715 0.13728  0.291930294118
 H1 0.506227 0.447139 0.63727  0.291930294118
 H1 0.506227 0.947149 0.13728  0.291930294118
 H1 0.506229 0.947144 0.63727  0.291930294118
 H2 0.329786 0.443408 0.09734  0.070106127451
 H2 0.329789 0.443398 0.59734  0.070106127451
 H2 0.329788 0.943404 0.09734  0.070106127451
 H2 0.329792 0.943399 0.59733  0.070106127451
 H2 0.82964 0.4434 0.09737  0.070106127451
 H2 0.829643 0.443398 0.59736  0.070106127451
 H2 0.829644 0.943402 0.09737  0.070106127451
 H2 0.829642 0.943398 0.59736  0.070106127451
 H2 0.39817 0.443016 0.22766  0.070106127451
 H2 0.398173 0.443008 0.72765  0.070106127451
 H2 0.398171 0.943014 0.22766  0.070106127451
 H2 0.398174 0.943007 0.72765  0.070106127451
 H2 0.898075 0.443014 0.22768  0.070106127451
 H2 0.898076 0.44301 0.72767  0.070106127451
 H2 0.898077 0.943013 0.22768  0.070106127451
 H2 0.898076 0.943006 0.72767  0.070106127451
 H2 0.215358 0.443287 0.1845  0.070106127451
 H2 0.215362 0.443278 0.68458  0.070106127451
 H2 0.215359 0.943286 0.18458  0.070106127451
 H2 0.215363 0.943278 0.6845  0.070106127451
 H2 0.715263 0.443282 0.18463  0.070106127451
 H2 0.715265 0.443275 0.68462  0.070106127451
 H2 0.715266 0.94328 0.1846  0.070106127451
 H2 0.715264 0.943277 0.68462  0.070106127451
 C1 0.330508 0.334314 0.47705  0.116712794118
 C1 0.330545 0.33431 0.97705  0.116712794118
 C1 0.330523 0.834308 0.4770  0.116712794118
 C1 0.330524 0.834304 0.97704  0.116712794118
 C1 0.831039 0.334312 0.47706  0.116712794118
 C1 0.831025 0.334307 0.97705  0.116712794118
 C1 0.831009 0.834307 0.47706  0.116712794118
 C1 0.831036 0.834308 0.97705  0.116712794118
 C1 0.168841 0.334313 0.02289  0.116712794118
 C1 0.168814 0.334311 0.52288  0.116712794118
 C1 0.16882 0.834317 0.02289  0.116712794118
 C1 0.168838 0.834316 0.52289  0.116712794118
 C1 0.669331 0.334316 0.02291  0.116712794118
 C1 0.669356 0.334311 0.52291  0.116712794118
 C1 0.669347 0.834314 0.02292  0.116712794118
 C1 0.669323 0.834313 0.5229  0.116712794118
 C1 0.16884 0.165685 0.02289  0.116712794118
 C1 0.168826 0.165678 0.52289  0.116712794118
 C1 0.168814 0.665683 0.02289  0.116712794118
 C1 0.168827 0.665683 0.52289  0.116712794118
 C1 0.669339 0.165682 0.02292  0.116712794118
 C1 0.669363 0.16568 0.52291  0.116712794118
 C1 0.669341 0.665685 0.02291  0.116712794118
 C1 0.669324 0.665679 0.52291  0.116712794118
 C1 0.330518 0.165686 0.47705  0.116712794118
 C1 0.330543 0.165679 0.97704  0.116712794118
 C1 0.330517 0.665678 0.47705  0.116712794118
 C1 0.33052 0.66568 0.97704  0.116712794118
 C1 0.831043 0.165682 0.47706  0.116712794118
 C1 0.831028 0.165682 0.9770  0.116712794118
 C1 0.831004 0.665683 0.47706  0.116712794118
 C1 0.831038 0.665679 0.9770  0.116712794118
 C2 0.366967 1e-06 0.12446  0.0677752941176
 C2 0.36697 0.999996 0.62446  0.0677752941176
 C2 0.366965 0.500003 0.12447  0.0677752941176
 C2 0.366969 0.499992 0.62446  0.0677752941176
 C2 0.866838 0.999999 0.12448  0.0677752941176
 C2 0.866839 0.999994 0.62448  0.0677752941176
 C2 0.866836 0.499996 0.12448  0.0677752941176
 C2 0.866836 0.499994 0.62448  0.0677752941176
 C3 0.359443 1e-06 0.20138  -0.145862205882
 C3 0.359446 0.999994 0.70137  -0.145862205882
 C3 0.359441 0.500001 0.20138  -0.145862205882
 C3 0.359445 0.499993 0.70137  -0.145862205882
 C3 0.859342 0.999999 0.20140  -0.145862205882
 C3 0.859342 0.999993 0.70140  -0.145862205882
 C3 0.859339 0.499998 0.20140  -0.145862205882
 C3 0.85934 0.499994 0.70140  -0.145862205882
 C3 0.253662 1e-06 0.21141  -0.145862205882
 C3 0.253666 0.999993 0.71140  -0.145862205882
 C3 0.253661 0.500001 0.21141  -0.145862205882
 C3 0.253664 0.499993 0.71141  -0.145862205882
 C3 0.753568 0.999998 0.21145  -0.145862205882
 C3 0.753568 0.999994 0.7114  -0.145862205882
 C3 0.753566 0.499999 0.21145  -0.145862205882
 C3 0.753566 0.499993 0.71145  -0.145862205882
 C2 0.133121 0.999996 0.37550  0.0677752941176
 C2 0.133125 0.999992 0.87549  0.0677752941176
 C2 0.133119 0.500003 0.37550  0.0677752941176
 C2 0.133121 0.49999 0.87549  0.0677752941176
 C2 0.632997 0.999997 0.37552  0.0677752941176
 C2 0.633002 0.999994 0.87552  0.0677752941176
 C2 0.632995 0.499997 0.37552  0.0677752941176
 C2 0.633 0.499996 0.87552  0.0677752941176
 C3 0.14063 0.999999 0.29858  -0.145862205882
 C3 0.140633 0.999992 0.79857  -0.145862205882
 C3 0.140629 0.5 0.29858  -0.145862205882
 C3 0.140631 0.499991 0.79857  -0.145862205882
 C3 0.640531 0.999998 0.29861  -0.145862205882
 C3 0.640533 0.999994 0.79860  -0.145862205882
 C3 0.640529 0.499998 0.29861  -0.145862205882
 C3 0.640531 0.499994 0.79860  -0.145862205882
 C3 0.246406 0.0 0.2885  -0.145862205882
 C3 0.246409 0.999992 0.78853  -0.145862205882
 C3 0.246405 0.500001 0.28854  -0.145862205882
 C3 0.246407 0.499992 0.78853  -0.145862205882
 C3 0.746313 0.999998 0.28858  -0.145862205882
 C3 0.746314 0.999994 0.78857  -0.145862205882
 C3 0.746311 0.499999 0.28858  -0.145862205882
 C3 0.746313 0.499994 0.78857  -0.145862205882
 N1 0.381582 0.389051 0.46333  -0.435724705882
 N1 0.381603 0.389057 0.9633  -0.435724705882
 N1 0.381587 0.889055 0.46333  -0.435724705882
 N1 0.381596 0.889047 0.96333  -0.435724705882
 N1 0.88183 0.389116 0.46308  -0.435724705882
 N1 0.881828 0.389105 0.96308  -0.435724705882
 N1 0.88182 0.889103 0.46310  -0.435724705882
 N1 0.881836 0.889108 0.96308  -0.435724705882
 N1 0.118064 0.389121 0.03688  -0.435724705882
 N1 0.118059 0.389128 0.53688  -0.435724705882
 N1 0.118057 0.88913 0.03689  -0.435724705882
 N1 0.118065 0.889122 0.53688  -0.435724705882
 N1 0.618306 0.389074 0.03666  -0.435724705882
 N1 0.618317 0.389062 0.5366  -0.435724705882
 N1 0.618312 0.889071 0.03666  -0.435724705882
 N1 0.618303 0.889073 0.5366  -0.435724705882
 N1 0.118068 0.110873 0.03688  -0.435724705882
 N1 0.118059 0.110865 0.53688  -0.435724705882
 N1 0.11805 0.610871 0.03688  -0.435724705882
 N1 0.118056 0.610876 0.53688  -0.435724705882
 N1 0.618306 0.110925 0.03666  -0.435724705882
 N1 0.618321 0.110927 0.5366  -0.435724705882
 N1 0.618308 0.610932 0.03666  -0.435724705882
 N1 0.618296 0.610921 0.53665  -0.435724705882
 N1 0.381586 0.110945 0.46333  -0.435724705882
 N1 0.381607 0.110935 0.9633  -0.435724705882
 N1 0.38158 0.610932 0.46333  -0.435724705882
 N1 0.381587 0.610936 0.96333  -0.435724705882
 N1 0.881834 0.11088 0.46309  -0.435724705882
 N1 0.881832 0.110883 0.96309  -0.435724705882
 N1 0.881812 0.610886 0.46309  -0.435724705882
 N1 0.881827 0.610872 0.96308  -0.435724705882
 N2 0.468912 0.0 0.11379  -0.623354705882
 N2 0.468914 0.999999 0.6137  -0.623354705882
 N2 0.46891 0.500002 0.11379  -0.623354705882
 N2 0.468913 0.49999 0.61379  -0.623354705882
 N2 0.968756 1e-06 0.11378  -0.623354705882
 N2 0.968757 0.999992 0.6137  -0.623354705882
 N2 0.968754 0.499995 0.11378  -0.623354705882
 N2 0.968754 0.499996 0.61377  -0.623354705882
 N2 0.031194 0.999993 0.38619  -0.623354705882
 N2 0.031198 0.999993 0.88618  -0.623354705882
 N2 0.031192 0.500003 0.38619  -0.623354705882
 N2 0.031194 0.499989 0.88618  -0.623354705882
 N2 0.531045 0.999999 0.38618  -0.623354705882
 N2 0.531051 0.999993 0.88618  -0.623354705882
 N2 0.531043 0.499994 0.38618  -0.623354705882
 N2 0.531049 0.499997 0.88618  -0.623354705882
