#======================================================================

# CRYSTAL DATA

#----------------------------------------------------------------------

data_VESTA_phase_1


_pd_phase_name                         MOF
_cell_length_a                         12.12400
_cell_length_b                         15.26400
_cell_length_c                         15.91600
_cell_angle_alpha                      89.96200
_cell_angle_beta                       89.99800
_cell_angle_gamma                      89.98600
_symmetry_space_group_name_H-M         "P 1"
_symmetry_Int_Tables_number            1

loop_
_symmetry_equiv_pos_as_xyz
   "x, y, z"

loop_
   _atom_site_label
   _atom_site_fract_x
   _atom_site_fract_y
   _atom_site_fract_z
 _atom_site_charge
 Cu1 0.332989 0.815053 0.49993  0.517949230769
 Cu1 0.666964 0.184957 0.50008  0.517949230769
 Cu1 0.166944 0.31503 0.99996  0.517949230769
 Cu1 0.833021 0.684961 4.3e-0  0.517949230769
 Cu2 0.49999 0.999982 0.  0.524709230769
 Cu2 0.999996 0.500003 0.99999  0.524709230769
 H1 0.644975 0.621726 0.90051  0.108374230769
 H1 0.715088 0.914416 0.78208  0.108374230769
 H1 0.531796 0.672252 0.77650  0.108374230769
 H1 0.818347 0.855305 0.90596  0.108374230769
 H1 0.355086 0.37818 0.90040  0.108374230769
 H1 0.284686 0.085612 0.78217  0.108374230769
 H1 0.468238 0.327655 0.77644  0.108374230769
 H1 0.181454 0.144717 0.90600  0.108374230769
 H1 0.8551 0.12178 0.59968  0.108374230769
 H1 0.784678 0.414423 0.71780  0.108374230769
 H1 0.968276 0.172333 0.72360  0.108374230769
 H1 0.681415 0.355287 0.5940  0.108374230769
 H1 0.14492 0.878383 0.59953  0.108374230769
 H1 0.215133 0.58563 0.71785  0.108374230769
 H1 0.031716 0.827806 0.72350  0.108374230769
 H1 0.31841 0.644793 0.59402  0.108374230769
 H1 0.355023 0.378297 0.09950  0.108374230769
 H1 0.284829 0.085629 0.21795  0.108374230769
 H1 0.468236 0.327737 0.22348  0.108374230769
 H1 0.181542 0.14477 0.09410  0.108374230769
 H1 0.644899 0.621708 0.0996  0.108374230769
 H1 0.715234 0.914316 0.2178  0.108374230769
 H1 0.53173 0.672255 0.22361  0.108374230769
 H1 0.818479 0.855192 0.09401  0.108374230769
 H1 0.144864 0.878178 0.40034  0.108374230769
 H1 0.215253 0.585531 0.28222  0.108374230769
 H1 0.031715 0.827652 0.27641  0.108374230769
 H1 0.318493 0.644645 0.40601  0.108374230769
 H1 0.855073 0.121714 0.40053  0.108374230769
 H1 0.78476 0.414408 0.28212  0.108374230769
 H1 0.968256 0.172264 0.27655  0.108374230769
 H1 0.681503 0.355269 0.40597  0.108374230769
 C1 0.61551 0.797444 0.7690  0.0763092307692
 C2 0.557897 0.827908 0.69423  0.326429230769
 C3 0.655298 0.68658 0.87265  0.131874230769
 C4 0.696464 0.84976 0.80727  -0.166285769231
 C4 0.594416 0.714629 0.80387  -0.166285769231
 C3 0.753368 0.817223 0.87602  0.131874230769
 C1 0.384387 0.202523 0.76905  0.0763092307692
 C2 0.441996 0.172058 0.69428  0.326429230769
 C3 0.344693 0.313352 0.87259  0.131874230769
 C4 0.303366 0.150241 0.80732  -0.166285769231
 C4 0.405561 0.285305 0.80383  -0.166285769231
 C3 0.24648 0.182775 0.87604  0.131874230769
 C1 0.884409 0.29749 0.73096  0.0763092307692
 C2 0.94202 0.327955 0.80572  0.326429230769
 C3 0.844698 0.186622 0.62747  0.131874230769
 C4 0.803365 0.349775 0.69268  -0.166285769231
 C4 0.905582 0.214688 0.69620  -0.166285769231
 C3 0.746459 0.317221 0.62399  0.131874230769
 C1 0.11549 0.702605 0.73094  0.0763092307692
 C2 0.057875 0.672115 0.80573  0.326429230769
 C3 0.155266 0.813518 0.62737  0.131874230769
 C4 0.196487 0.650301 0.6926  -0.166285769231
 C4 0.094372 0.785438 0.69613  -0.166285769231
 C3 0.2534 0.682868 0.62396  0.131874230769
 C1 0.384472 0.202569 0.23097  0.0763092307692
 C2 0.4421 0.17209 0.30577  0.326429230769
 C3 0.344686 0.313448 0.12736  0.131874230769
 C4 0.303474 0.150279 0.19275  -0.166285769231
 C4 0.405583 0.285379 0.19612  -0.166285769231
 C3 0.246554 0.182834 0.1240  0.131874230769
 C1 0.615553 0.797398 0.2309  0.0763092307692
 C2 0.557934 0.827885 0.3057  0.326429230769
 C3 0.655277 0.686543 0.1274  0.131874230769
 C4 0.696564 0.849679 0.19268  -0.166285769231
 C4 0.594397 0.714605 0.19620  -0.166285769231
 C3 0.753462 0.817132 0.12397  0.131874230769
 C1 0.115559 0.702483 0.26906  0.0763092307692
 C2 0.057968 0.672033 0.19428  0.326429230769
 C3 0.15526 0.813334 0.37256  0.131874230769
 C4 0.196577 0.650181 0.30734  -0.166285769231
 C4 0.094392 0.785286 0.30381  -0.166285769231
 C3 0.253467 0.68272 0.37605  0.131874230769
 C1 0.884436 0.297446 0.26907  0.0763092307692
 C2 0.942044 0.327916 0.19427  0.326429230769
 C3 0.844703 0.186568 0.37268  0.131874230769
 C4 0.803428 0.349751 0.3073  -0.166285769231
 C4 0.905587 0.214631 0.30391  -0.166285769231
 C3 0.746526 0.317199 0.37604  0.131874230769
 N1 0.512591 0.906134 0.59042  0.0283992307692
 N1 0.45276 0.832042 0.58852  0.0283992307692
 N2 0.479703 0.781312 0.65315  -0.334560769231
 N2 0.579173 0.905404 0.65633  -0.334560769231
 N3 0.73412 0.736813 0.90822  -0.224390769231
 N1 0.487277 0.093871 0.59052  0.0283992307692
 N1 0.547229 0.167905 0.58864  0.0283992307692
 N2 0.520311 0.218607 0.65324  -0.334560769231
 N2 0.420626 0.094619 0.656  -0.334560769231
 N3 0.265803 0.263152 0.90818  -0.224390769231
 N1 0.987273 0.406152 0.90947  0.0283992307692
 N1 0.047245 0.332104 0.91137  0.0283992307692
 N2 0.020339 0.28139 0.84679  -0.334560769231
 N2 0.920635 0.405408 0.84360  -0.334560769231
 N3 0.76578 0.236819 0.59187  -0.224390769231
 N1 0.012612 0.593865 0.90953  0.0283992307692
 N1 0.952703 0.667944 0.91142  0.0283992307692
 N2 0.979619 0.718691 0.84680  -0.334560769231
 N2 0.079212 0.59462 0.84363  -0.334560769231
 N3 0.234132 0.763298 0.59180  -0.224390769231
 N1 0.48741 0.093838 0.40956  0.0283992307692
 N1 0.547258 0.16792 0.41146  0.0283992307692
 N2 0.520308 0.218671 0.3468  -0.334560769231
 N2 0.420816 0.09459 0.34366  -0.334560769231
 N3 0.265822 0.263242 0.09181  -0.224390769231
 N1 0.512672 0.906115 0.40946  0.0283992307692
 N1 0.452669 0.83211 0.41134  0.0283992307692
 N2 0.479577 0.781376 0.34677  -0.334560769231
 N2 0.579339 0.905325 0.34360  -0.334560769231
 N3 0.734154 0.736743 0.09185  -0.224390769231
 N1 0.012726 0.593866 0.09051  0.0283992307692
 N1 0.952778 0.667928 0.08861  0.0283992307692
 N2 0.979676 0.718621 0.15321  -0.334560769231
 N2 0.079343 0.594584 0.15640  -0.334560769231
 N3 0.234158 0.763121 0.40816  -0.224390769231
 N1 0.987333 0.406134 0.09045  0.0283992307692
 N1 0.047192 0.332028 0.08856  0.0283992307692
 N2 0.020265 0.281307 0.15319  -0.334560769231
 N2 0.920746 0.405415 0.15636  -0.334560769231
 N3 0.765824 0.236789 0.40824  -0.224390769231
 Cl1 0.275534 0.965903 0.49988  -0.641700769231
 Cl1 0.724437 0.034106 0.50011  -0.641700769231
 Cl1 0.224376 0.465865 0.99990  -0.641700769231
 Cl1 0.77561 0.534118 8e-0  -0.641700769231
