#======================================================================

# CRYSTAL DATA

#----------------------------------------------------------------------

data_VESTA_phase_1


_pd_phase_name                         MOF
_cell_length_a                         19.79700
_cell_length_b                         19.80000
_cell_length_c                         15.41800
_cell_angle_alpha                      74.15100
_cell_angle_beta                       74.16400
_cell_angle_gamma                      82.48300
_symmetry_space_group_name_H-M         "P 1"
_symmetry_Int_Tables_number            1

loop_
_symmetry_equiv_pos_as_xyz
   "x, y, z"

loop_
   _atom_site_label
   _atom_site_fract_x
   _atom_site_fract_y
   _atom_site_fract_z
 _atom_site_charge
 Al1 0.468263 0.158775 0.12571  1.96085972222
 Al1 0.468265 0.65877 0.12571  1.96085972222
 Al1 0.968266 0.158775 0.12571  1.96085972222
 Al1 0.968268 0.65877 0.12571  1.96085972222
 Al1 0.316778 0.440406 0.08138  1.96085972222
 Al1 0.31678 0.940401 0.08138  1.96085972222
 Al1 0.816781 0.440406 0.08138  1.96085972222
 Al1 0.816783 0.940401 0.08138  1.96085972222
 Al1 0.016775 0.401946 0.16700  1.96085972222
 Al1 0.016777 0.901941 0.16700  1.96085972222
 Al1 0.516778 0.401946 0.16700  1.96085972222
 Al1 0.516781 0.901941 0.16700  1.96085972222
 Al1 0.34123 0.031732 0.37426  1.96085972222
 Al1 0.341233 0.531727 0.37426  1.96085972222
 Al1 0.841233 0.031732 0.37426  1.96085972222
 Al1 0.841236 0.531727 0.37426  1.96085972222
 Al1 0.059593 0.183231 0.41858  1.96085972222
 Al1 0.059596 0.683226 0.41858  1.96085972222
 Al1 0.559597 0.183231 0.41858  1.96085972222
 Al1 0.559599 0.683226 0.41858  1.96085972222
 Al1 0.098045 0.483201 0.33304  1.96085972222
 Al1 0.098048 0.983196 0.33304  1.96085972222
 Al1 0.598049 0.483201 0.33304  1.96085972222
 Al1 0.598051 0.983196 0.33304  1.96085972222
 Al1 0.031746 0.341221 0.87430  1.96085972222
 Al1 0.031749 0.841216 0.87430  1.96085972222
 Al1 0.531749 0.341221 0.87430  1.96085972222
 Al1 0.531752 0.841216 0.87430  1.96085972222
 Al1 0.183231 0.05959 0.91863  1.96085972222
 Al1 0.183234 0.559585 0.91863  1.96085972222
 Al1 0.683234 0.05959 0.91863  1.96085972222
 Al1 0.683237 0.559585 0.91863  1.96085972222
 Al1 0.483234 0.09805 0.83301  1.96085972222
 Al1 0.483236 0.598045 0.83301  1.96085972222
 Al1 0.983237 0.09805 0.83301  1.96085972222
 Al1 0.983239 0.598045 0.83301  1.96085972222
 Al1 0.158779 0.468264 0.62574  1.96085972222
 Al1 0.158781 0.968259 0.62574  1.96085972222
 Al1 0.658782 0.468264 0.62574  1.96085972222
 Al1 0.658784 0.968259 0.62574  1.96085972222
 Al1 0.440415 0.316765 0.5814  1.96085972222
 Al1 0.440418 0.81676 0.5814  1.96085972222
 Al1 0.940418 0.316765 0.5814  1.96085972222
 Al1 0.940421 0.81676 0.5814  1.96085972222
 Al1 0.401963 0.016794 0.66696  1.96085972222
 Al1 0.401966 0.516789 0.66696  1.96085972222
 Al1 0.901966 0.016794 0.66696  1.96085972222
 Al1 0.901969 0.516789 0.66696  1.96085972222
 P1 0.438156 0.322145 0.07900  2.10446222222
 P1 0.438159 0.82214 0.07900  2.10446222222
 P1 0.938159 0.322145 0.07900  2.10446222222
 P1 0.938162 0.82214 0.07900  2.10446222222
 P1 0.157568 0.468415 0.12571  2.10446222222
 P1 0.157571 0.96841 0.12571  2.10446222222
 P1 0.657572 0.468415 0.12571  2.10446222222
 P1 0.657574 0.96841 0.12571  2.10446222222
 P1 0.394308 0.020936 0.16895  2.10446222222
 P1 0.39431 0.520931 0.16895  2.10446222222
 P1 0.894311 0.020936 0.16895  2.10446222222
 P1 0.894313 0.520931 0.16895  2.10446222222
 P1 0.177818 0.06184 0.42105  2.10446222222
 P1 0.17782 0.561835 0.42105  2.10446222222
 P1 0.677821 0.06184 0.42105  2.10446222222
 P1 0.677823 0.561835 0.42105  2.10446222222
 P1 0.031569 0.342425 0.37433  2.10446222222
 P1 0.031571 0.84242 0.37433  2.10446222222
 P1 0.531572 0.342425 0.37433  2.10446222222
 P1 0.531574 0.84242 0.37433  2.10446222222
 P1 0.479082 0.105682 0.33101  2.10446222222
 P1 0.479085 0.605677 0.33101  2.10446222222
 P1 0.979085 0.105682 0.33101  2.10446222222
 P1 0.979088 0.605677 0.33101  2.10446222222
 P1 0.061852 0.177851 0.92101  2.10446222222
 P1 0.061855 0.677845 0.92101  2.10446222222
 P1 0.561856 0.177851 0.92101  2.10446222222
 P1 0.561858 0.677845 0.92101  2.10446222222
 P1 0.34244 0.031581 0.87430  2.10446222222
 P1 0.342443 0.531576 0.87430  2.10446222222
 P1 0.842443 0.031581 0.87430  2.10446222222
 P1 0.842446 0.531576 0.87430  2.10446222222
 P1 0.105701 0.47906 0.83106  2.10446222222
 P1 0.105704 0.979055 0.83106  2.10446222222
 P1 0.605704 0.47906 0.83106  2.10446222222
 P1 0.605706 0.979055 0.83106  2.10446222222
 P1 0.322191 0.438156 0.57896  2.10446222222
 P1 0.322194 0.938151 0.57896  2.10446222222
 P1 0.822194 0.438156 0.57896  2.10446222222
 P1 0.822197 0.938151 0.57896  2.10446222222
 P1 0.46844 0.15757 0.62567  2.10446222222
 P1 0.468443 0.657565 0.62567  2.10446222222
 P1 0.968443 0.157571 0.62567  2.10446222222
 P1 0.968445 0.657565 0.62567  2.10446222222
 P1 0.020927 0.394314 0.66899  2.10446222222
 P1 0.020929 0.894309 0.66899  2.10446222222
 P1 0.52093 0.394314 0.66899  2.10446222222
 P1 0.520932 0.894309 0.66899  2.10446222222
 O1 0.105859 0.419497 0.11814  -1.01633048611
 O1 0.105862 0.919492 0.11814  -1.01633048611
 O1 0.605862 0.419497 0.11814  -1.01633048611
 O1 0.605865 0.919492 0.11814  -1.01633048611
 O1 0.426032 0.24317 0.11473  -1.01633048611
 O1 0.426035 0.743165 0.11473  -1.01633048611
 O1 0.926035 0.24317 0.11473  -1.01633048611
 O1 0.926038 0.743165 0.11473  -1.01633048611
 O1 0.340056 0.006244 0.12272  -1.01633048611
 O1 0.340058 0.50624 0.12272  -1.01633048611
 O1 0.840059 0.006245 0.12272  -1.01633048611
 O1 0.840061 0.506239 0.12272  -1.01633048611
 O1 0.127037 0.498418 0.21167  -1.01633048611
 O1 0.127039 0.998413 0.2116  -1.01633048611
 O1 0.62704 0.498418 0.2116  -1.01633048611
 O1 0.627042 0.998413 0.2116  -1.01633048611
 O1 0.404567 0.100552 0.13711  -1.01633048611
 O1 0.40457 0.600547 0.13711  -1.01633048611
 O1 0.90457 0.100552 0.13711  -1.01633048611
 O1 0.904573 0.600547 0.13711  -1.01633048611
 O1 0.495764 0.338801 0.11938  -1.01633048611
 O1 0.495766 0.838796 0.11938  -1.01633048611
 O1 0.995767 0.338801 0.1193  -1.01633048611
 O1 0.995769 0.838796 0.11938  -1.01633048611
 O1 0.366978 0.49716 0.27577  -1.01633048611
 O1 0.366981 0.997155 0.27577  -1.01633048611
 O1 0.866981 0.49716 0.27577  -1.01633048611
 O1 0.866984 0.997155 0.27577  -1.01633048611
 O1 0.227454 0.425056 0.13307  -1.01633048611
 O1 0.227457 0.925051 0.13307  -1.01633048611
 O1 0.727457 0.425056 0.13307  -1.01633048611
 O1 0.72746 0.925051 0.13307  -1.01633048611
 O1 0.170109 0.031481 0.03990  -1.01633048611
 O1 0.170111 0.531476 0.03990  -1.01633048611
 O1 0.670112 0.031481 0.03990  -1.01633048611
 O1 0.670114 0.531476 0.03990  -1.01633048611
 O1 0.465524 0.480613 0.13850  -1.01633048611
 O1 0.465527 0.980608 0.13850  -1.01633048611
 O1 0.965527 0.480613 0.13850  -1.01633048611
 O1 0.96553 0.980608 0.13850  -1.01633048611
 O1 0.368104 0.362667 0.11164  -1.01633048611
 O1 0.368107 0.862662 0.11164  -1.01633048611
 O1 0.868107 0.362667 0.11164  -1.01633048611
 O1 0.86811 0.862662 0.11164  -1.01633048611
 O1 0.461282 0.343144 0.97175  -1.01633048611
 O1 0.461284 0.843138 0.97175  -1.01633048611
 O1 0.961285 0.343143 0.97175  -1.01633048611
 O1 0.961288 0.843139 0.97175  -1.01633048611
 O1 0.080498 0.394123 0.38190  -1.01633048611
 O1 0.0805 0.894118 0.38190  -1.01633048611
 O1 0.580501 0.394123 0.38190  -1.01633048611
 O1 0.580503 0.894118 0.38190  -1.01633048611
 O1 0.256809 0.073932 0.38540  -1.01633048611
 O1 0.256812 0.573927 0.38540  -1.01633048611
 O1 0.756813 0.073932 0.38540  -1.01633048611
 O1 0.756815 0.573927 0.38540  -1.01633048611
 O1 0.493765 0.159947 0.37720  -1.01633048611
 O1 0.493767 0.659941 0.37720  -1.01633048611
 O1 0.993768 0.159946 0.37720  -1.01633048611
 O1 0.993771 0.659942 0.37720  -1.01633048611
 O1 0.001528 0.372983 0.28839  -1.01633048611
 O1 0.001531 0.872978 0.28839  -1.01633048611
 O1 0.501531 0.372983 0.28839  -1.01633048611
 O1 0.501534 0.872978 0.28839  -1.01633048611
 O1 0.399455 0.095436 0.36281  -1.01633048611
 O1 0.399457 0.595431 0.36281  -1.01633048611
 O1 0.899458 0.095436 0.36281  -1.01633048611
 O1 0.89946 0.595431 0.36281  -1.01633048611
 O1 0.16119 0.00423 0.38068  -1.01633048611
 O1 0.161192 0.504225 0.38068  -1.01633048611
 O1 0.661192 0.00423 0.38068  -1.01633048611
 O1 0.661195 0.504225 0.38068  -1.01633048611
 O1 0.002876 0.132968 0.2241  -1.01633048611
 O1 0.002878 0.632963 0.2241  -1.01633048611
 O1 0.502879 0.132967 0.2241  -1.01633048611
 O1 0.502881 0.632963 0.2241  -1.01633048611
 O1 0.07493 0.272558 0.36693  -1.01633048611
 O1 0.074933 0.772553 0.36693  -1.01633048611
 O1 0.574933 0.272558 0.36693  -1.01633048611
 O1 0.574936 0.772553 0.36693  -1.01633048611
 O1 0.468528 0.329871 0.46015  -1.01633048611
 O1 0.46853 0.829865 0.46015  -1.01633048611
 O1 0.968531 0.32987 0.46015  -1.01633048611
 O1 0.968534 0.829865 0.46015  -1.01633048611
 O1 0.019384 0.034468 0.36153  -1.01633048611
 O1 0.019387 0.534463 0.36153  -1.01633048611
 O1 0.519387 0.034468 0.36153  -1.01633048611
 O1 0.51939 0.534463 0.36153  -1.01633048611
 O1 0.137326 0.1319 0.3883  -1.01633048611
 O1 0.137329 0.631895 0.3883  -1.01633048611
 O1 0.63733 0.1319 0.3883  -1.01633048611
 O1 0.637332 0.631895 0.3883  -1.01633048611
 O1 0.156742 0.038757 0.52832  -1.01633048611
 O1 0.156744 0.538753 0.52832  -1.01633048611
 O1 0.656745 0.038757 0.52832  -1.01633048611
 O1 0.656747 0.538752 0.52832  -1.01633048611
 O1 0.39415 0.080499 0.88186  -1.01633048611
 O1 0.394152 0.580494 0.88186  -1.01633048611
 O1 0.894153 0.080499 0.88186  -1.01633048611
 O1 0.894155 0.580494 0.88186  -1.01633048611
 O1 0.073976 0.256825 0.88528  -1.01633048611
 O1 0.073979 0.75682 0.88528  -1.01633048611
 O1 0.57398 0.256825 0.88528  -1.01633048611
 O1 0.573982 0.75682 0.88528  -1.01633048611
 O1 0.159953 0.493751 0.8772  -1.01633048611
 O1 0.159956 0.993746 0.87728  -1.01633048611
 O1 0.659956 0.493751 0.87728  -1.01633048611
 O1 0.659958 0.993746 0.8772  -1.01633048611
 O1 0.372972 0.001578 0.78834  -1.01633048611
 O1 0.372975 0.501573 0.78834  -1.01633048611
 O1 0.872975 0.001578 0.78834  -1.01633048611
 O1 0.872978 0.501573 0.78834  -1.01633048611
 O1 0.095441 0.399444 0.862  -1.01633048611
 O1 0.095444 0.899439 0.862  -1.01633048611
 O1 0.595445 0.399444 0.862  -1.01633048611
 O1 0.595447 0.899439 0.862  -1.01633048611
 O1 0.004245 0.161195 0.88063  -1.01633048611
 O1 0.004248 0.66119 0.88063  -1.01633048611
 O1 0.504248 0.161195 0.88063  -1.01633048611
 O1 0.50425 0.66119 0.88063  -1.01633048611
 O1 0.133031 0.002836 0.72424  -1.01633048611
 O1 0.133033 0.502831 0.72424  -1.01633048611
 O1 0.633034 0.002836 0.72424  -1.01633048611
 O1 0.633036 0.502831 0.72424  -1.01633048611
 O1 0.272555 0.07494 0.86694  -1.01633048611
 O1 0.272557 0.574935 0.86694  -1.01633048611
 O1 0.772558 0.07494 0.86694  -1.01633048611
 O1 0.77256 0.574935 0.86694  -1.01633048611
 O1 0.3299 0.468514 0.96011  -1.01633048611
 O1 0.329903 0.96851 0.96011  -1.01633048611
 O1 0.829903 0.468515 0.96011  -1.01633048611
 O1 0.829906 0.968509 0.96011  -1.01633048611
 O1 0.034485 0.019383 0.86150  -1.01633048611
 O1 0.034487 0.519378 0.86150  -1.01633048611
 O1 0.534488 0.019383 0.86150  -1.01633048611
 O1 0.53449 0.519378 0.86150  -1.01633048611
 O1 0.131905 0.137329 0.88837  -1.01633048611
 O1 0.131907 0.637323 0.88837  -1.01633048611
 O1 0.631908 0.137329 0.88837  -1.01633048611
 O1 0.63191 0.637324 0.88837  -1.01633048611
 O1 0.038727 0.156853 0.02826  -1.01633048611
 O1 0.038729 0.656847 0.02826  -1.01633048611
 O1 0.53873 0.156852 0.02826  -1.01633048611
 O1 0.538733 0.656848 0.02826  -1.01633048611
 O1 0.419511 0.105873 0.61811  -1.01633048611
 O1 0.419514 0.605867 0.61811  -1.01633048611
 O1 0.919514 0.105873 0.61811  -1.01633048611
 O1 0.919516 0.605868 0.61811  -1.01633048611
 O1 0.243199 0.426064 0.61461  -1.01633048611
 O1 0.243202 0.926059 0.6146  -1.01633048611
 O1 0.743202 0.426063 0.6146  -1.01633048611
 O1 0.743205 0.926059 0.61461  -1.01633048611
 O1 0.006244 0.34005 0.62280  -1.01633048611
 O1 0.006246 0.840044 0.6228  -1.01633048611
 O1 0.506247 0.340049 0.6228  -1.01633048611
 O1 0.50625 0.840045 0.62280  -1.01633048611
 O1 0.498481 0.127012 0.71162  -1.01633048611
 O1 0.498483 0.627008 0.71162  -1.01633048611
 O1 0.998484 0.127012 0.71162  -1.01633048611
 O1 0.998486 0.627007 0.71162  -1.01633048611
 O1 0.100554 0.40456 0.63720  -1.01633048611
 O1 0.100557 0.904555 0.63720  -1.01633048611
 O1 0.600557 0.40456 0.63720  -1.01633048611
 O1 0.60056 0.904555 0.63720  -1.01633048611
 O1 0.338819 0.495766 0.61932  -1.01633048611
 O1 0.338822 0.995761 0.6193  -1.01633048611
 O1 0.838822 0.495766 0.6193  -1.01633048611
 O1 0.838825 0.995761 0.61932  -1.01633048611
 O1 0.497133 0.367028 0.77582  -1.01633048611
 O1 0.497136 0.867023 0.77582  -1.01633048611
 O1 0.997136 0.367028 0.77582  -1.01633048611
 O1 0.997139 0.867023 0.77582  -1.01633048611
 O1 0.425078 0.227438 0.6330  -1.01633048611
 O1 0.425081 0.727433 0.6330  -1.01633048611
 O1 0.925082 0.227438 0.6330  -1.01633048611
 O1 0.925084 0.727433 0.6330  -1.01633048611
 O1 0.031481 0.170125 0.53986  -1.01633048611
 O1 0.031483 0.67012 0.53986  -1.01633048611
 O1 0.531484 0.170125 0.53986  -1.01633048611
 O1 0.531487 0.67012 0.53986  -1.01633048611
 O1 0.480625 0.465527 0.63848  -1.01633048611
 O1 0.480627 0.965523 0.63848  -1.01633048611
 O1 0.980628 0.465528 0.63848  -1.01633048611
 O1 0.98063 0.965522 0.63848  -1.01633048611
 O1 0.362682 0.368096 0.61168  -1.01633048611
 O1 0.362685 0.868091 0.61168  -1.01633048611
 O1 0.862685 0.368096 0.61168  -1.01633048611
 O1 0.862688 0.868091 0.61168  -1.01633048611
 O1 0.343267 0.461239 0.47169  -1.01633048611
 O1 0.34327 0.961234 0.47169  -1.01633048611
 O1 0.84327 0.461239 0.47169  -1.01633048611
 O1 0.843273 0.961233 0.47169  -1.01633048611
