#======================================================================

# CRYSTAL DATA

#----------------------------------------------------------------------

data_VESTA_phase_1


_pd_phase_name                         MOF
_cell_length_a                         19.59200
_cell_length_b                         14.26300
_cell_length_c                         14.27000
_cell_angle_alpha                      102.88900
_cell_angle_beta                       103.38200
_cell_angle_gamma                      103.15100
_symmetry_space_group_name_H-M         "P 1"
_symmetry_Int_Tables_number            1

loop_
_symmetry_equiv_pos_as_xyz
   "x, y, z"

loop_
   _atom_site_label
   _atom_site_fract_x
   _atom_site_fract_y
   _atom_site_fract_z
 _atom_site_charge
 Zn1 0.453113 0.267538 0.83477  0.929536048387
 Zn1 0.953121 0.267533 0.83478  0.929536048387
 Zn1 0.297822 0.16186 0.72856  0.929536048387
 Zn1 0.797826 0.161843 0.72857  0.929536048387
 Zn1 0.046956 0.732479 0.16519  0.929536048387
 Zn1 0.546962 0.732479 0.16519  0.929536048387
 Zn1 0.202238 0.838087 0.27138  0.929536048387
 Zn1 0.702244 0.838099 0.27139  0.929536048387
 H1 0.237536 0.643277 0.74037  0.108312298387
 H1 0.737537 0.643263 0.74034  0.108312298387
 H1 0.489327 0.810438 0.93555  0.108312298387
 H1 0.989338 0.810416 0.93555  0.108312298387
 H1 0.217254 0.450041 0.72679  0.108312298387
 H1 0.71725 0.45003 0.72677  0.108312298387
 H1 0.01674 0.996412 0.9235  0.108312298387
 H1 0.516739 0.996435 0.92356  0.108312298387
 H1 0.163849 0.594274 0.98158  0.108312298387
 H1 0.663834 0.594306 0.98229  0.108312298387
 H1 0.230295 0.322171 0.96496  0.108312298387
 H1 0.730333 0.322107 0.96397  0.108312298387
 H1 0.036081 0.486515 0.91242  0.108312298387
 H1 0.536076 0.486554 0.91301  0.108312298387
 H1 0.098935 0.226777 0.89979  0.108312298387
 H1 0.598971 0.226726 0.89904  0.108312298387
 H1 0.012265 0.258607 0.35382  0.108312298387
 H1 0.512267 0.258609 0.35380  0.108312298387
 H1 0.259774 0.066325 0.18665  0.108312298387
 H1 0.75978 0.066338 0.1866  0.108312298387
 H1 0.033042 0.270327 0.54674  0.108312298387
 H1 0.533049 0.270328 0.54672  0.108312298387
 H1 0.233013 0.077045 0.00019  0.108312298387
 H1 0.733013 0.077053 0.0002  0.108312298387
 H1 0.084607 0.016056 0.40376  0.108312298387
 H1 0.584609 0.016265 0.40377  0.108312298387
 H1 0.021631 0.037309 0.67832  0.108312298387
 H1 0.521642 0.037026 0.67830  0.108312298387
 H1 0.213029 0.083904 0.50952  0.108312298387
 H1 0.713032 0.084073 0.50954  0.108312298387
 H1 0.153574 0.100538 0.77170  0.108312298387
 H1 0.653586 0.100285 0.77168  0.108312298387
 H1 0.262519 0.356723 0.25968  0.108312298387
 H1 0.76252 0.356722 0.25965  0.108312298387
 H1 0.010716 0.189559 0.06446  0.108312298387
 H1 0.510723 0.189552 0.06446  0.108312298387
 H1 0.282817 0.549945 0.27320  0.108312298387
 H1 0.782812 0.549949 0.27318  0.108312298387
 H1 0.483329 0.00356 0.07647  0.108312298387
 H1 0.983336 0.003566 0.07646  0.108312298387
 H1 0.336263 0.405686 0.01689  0.108312298387
 H1 0.836251 0.405711 0.01756  0.108312298387
 H1 0.269708 0.677981 0.03708  0.108312298387
 H1 0.769747 0.677927 0.03614  0.108312298387
 H1 0.464013 0.513425 0.08627  0.108312298387
 H1 0.964009 0.513457 0.08684  0.108312298387
 H1 0.401074 0.773349 0.10174  0.108312298387
 H1 0.90111 0.773304 0.10105  0.108312298387
 H1 0.487783 0.741467 0.64616  0.108312298387
 H1 0.987787 0.741481 0.64615  0.108312298387
 H1 0.240265 0.933703 0.81330  0.108312298387
 H1 0.740273 0.933714 0.81331  0.108312298387
 H1 0.467013 0.729716 0.4532  0.108312298387
 H1 0.967024 0.72972 0.45322  0.108312298387
 H1 0.267032 0.922985 0.99976  0.108312298387
 H1 0.767035 0.922996 0.99977  0.108312298387
 H1 0.415459 0.98332 0.5961  0.108312298387
 H1 0.915474 0.983236 0.5961  0.108312298387
 H1 0.478401 0.963608 0.32171  0.108312298387
 H1 0.978405 0.963718 0.32172  0.108312298387
 H1 0.287033 0.915522 0.49040  0.108312298387
 H1 0.787044 0.915455 0.49040  0.108312298387
 H1 0.346459 0.90018 0.22832  0.108312298387
 H1 0.846465 0.900233 0.22833  0.108312298387
 C1 0.387932 0.771892 0.8127  -0.115541451613
 C1 0.887934 0.771882 0.81278  -0.115541451613
 C1 0.335496 0.483864 0.78411  -0.115541451613
 C1 0.835489 0.483855 0.78414  -0.115541451613
 C2 0.347606 0.385896 0.78672  0.696106048387
 C2 0.8476 0.385885 0.78674  0.696106048387
 C3 0.28156 0.609665 0.75972  -0.120543534946
 C3 0.78156 0.609654 0.75972  -0.120543534946
 C2 0.404653 0.045152 0.78908  0.696106048387
 C2 0.904667 0.045149 0.78910  0.696106048387
 C3 0.454209 0.835245 0.88128  -0.120543534946
 C3 0.954216 0.835228 0.8812  -0.120543534946
 C3 0.270489 0.506806 0.75296  -0.120543534946
 C3 0.770484 0.506796 0.75296  -0.120543534946
 C4 0.210899 0.469125 0.97994  0.0967610483871
 C4 0.710914 0.469115 0.97980  0.0967610483871
 C1 0.41343 0.949264 0.80492  -0.115541451613
 C1 0.91344 0.949257 0.80494  -0.115541451613
 C1 0.355443 0.66568 0.79651  -0.115541451613
 C1 0.855441 0.66567 0.79652  -0.115541451613
 C3 0.468753 0.934926 0.8756  -0.120543534946
 C3 0.968764 0.934911 0.8756  -0.120543534946
 C3 0.153618 0.513262 0.96410  -0.120543534946
 C3 0.65362 0.513277 0.96441  -0.120543534946
 C3 0.190091 0.363472 0.95581  -0.120543534946
 C3 0.69012 0.363436 0.95527  -0.120543534946
 C5 0.08107 0.45356 0.92588  0.170756048387
 C5 0.581071 0.453574 0.92618  0.170756048387
 C5 0.11632 0.308599 0.91844  0.170756048387
 C5 0.616347 0.308567 0.91797  0.170756048387
 C1 0.361707 0.187714 0.22525  -0.115541451613
 C1 0.86172 0.187711 0.22526  -0.115541451613
 C1 0.414818 0.213988 0.5129  -0.115541451613
 C1 0.914827 0.213988 0.51294  -0.115541451613
 C2 0.402925 0.210045 0.61059  0.696106048387
 C2 0.902931 0.210048 0.61061  0.696106048387
 C3 0.468362 0.239337 0.38738  -0.120543534946
 C3 0.968375 0.239337 0.387  -0.120543534946
 C2 0.345883 0.208784 0.9512  0.696106048387
 C2 0.845888 0.20877 0.95124  0.696106048387
 C3 0.295193 0.119889 0.16178  -0.120543534946
 C3 0.795202 0.119894 0.16180  -0.120543534946
 C3 0.479705 0.245089 0.49006  -0.120543534946
 C3 0.979715 0.24509 0.49008  -0.120543534946
 C4 0.039299 0.01993 0.53034  0.0967610483871
 C4 0.539306 0.019918 0.53033  0.0967610483871
 C1 0.336687 0.194542 0.04747  -0.115541451613
 C1 0.836697 0.194529 0.04748  -0.115541451613
 C1 0.394377 0.203475 0.33144  -0.115541451613
 C1 0.89439 0.203476 0.33145  -0.115541451613
 C3 0.280977 0.124897 0.06187  -0.120543534946
 C3 0.780983 0.124898 0.0618  -0.120543534946
 C3 0.09576 0.034351 0.48494  -0.120543534946
 C3 0.595765 0.034434 0.48494  -0.120543534946
 C3 0.06118 0.044948 0.63609  -0.120543534946
 C3 0.561189 0.044777 0.63608  -0.120543534946
 C5 0.16867 0.071688 0.54353  0.170756048387
 C5 0.668674 0.071785 0.5435  0.170756048387
 C5 0.135238 0.081293 0.68982  0.170756048387
 C5 0.635247 0.081154 0.68981  0.170756048387
 C1 0.112124 0.228113 0.18723  -0.115541451613
 C1 0.612126 0.228115 0.18724  -0.115541451613
 C1 0.16458 0.51612 0.21578  -0.115541451613
 C1 0.664573 0.516126 0.21581  -0.115541451613
 C2 0.152481 0.614096 0.21319  0.696106048387
 C2 0.652472 0.614097 0.21320  0.696106048387
 C3 0.2185 0.390331 0.24028  -0.120543534946
 C3 0.718499 0.390332 0.2402  -0.120543534946
 C2 0.09541 0.954856 0.2109  0.696106048387
 C2 0.595421 0.954863 0.21094  0.696106048387
 C3 0.045844 0.164757 0.11873  -0.120543534946
 C3 0.545848 0.164754 0.1187  -0.120543534946
 C3 0.229582 0.493181 0.24700  -0.120543534946
 C3 0.729577 0.493185 0.24700  -0.120543534946
 C4 0.289154 0.53092 0.02030  0.0967610483871
 C4 0.789169 0.530911 0.02018  0.0967610483871
 C1 0.086633 0.050749 0.19510  -0.115541451613
 C1 0.58664 0.050752 0.19511  -0.115541451613
 C1 0.144617 0.33432 0.20347  -0.115541451613
 C1 0.644616 0.334322 0.20347  -0.115541451613
 C3 0.031305 0.065079 0.12439  -0.120543534946
 C3 0.531312 0.065077 0.12440  -0.120543534946
 C3 0.346461 0.486731 0.03521  -0.120543534946
 C3 0.846464 0.486742 0.03550  -0.120543534946
 C3 0.309933 0.636625 0.045  -0.120543534946
 C3 0.809962 0.636593 0.04478  -0.120543534946
 C5 0.419011 0.546433 0.07344  0.170756048387
 C5 0.919013 0.546444 0.07373  0.170756048387
 C5 0.383708 0.691488 0.08250  0.170756048387
 C5 0.883736 0.69146 0.0820  0.170756048387
 C1 0.13833 0.812323 0.77471  -0.115541451613
 C1 0.638342 0.812325 0.77472  -0.115541451613
 C1 0.085243 0.785992 0.48702  -0.115541451613
 C1 0.585247 0.786006 0.48703  -0.115541451613
 C2 0.097143 0.789918 0.38936  0.696106048387
 C2 0.597143 0.789939 0.38937  0.696106048387
 C3 0.031682 0.760712 0.61257  -0.120543534946
 C3 0.531691 0.760709 0.61258  -0.120543534946
 C2 0.154154 0.791253 0.04872  0.696106048387
 C2 0.654162 0.79125 0.04873  0.696106048387
 C3 0.204845 0.880144 0.83817  -0.120543534946
 C3 0.704854 0.880151 0.83818  -0.120543534946
 C3 0.020349 0.754937 0.50988  -0.120543534946
 C3 0.520355 0.75494 0.509  -0.120543534946
 C4 0.460749 0.980181 0.46964  0.0967610483871
 C4 0.960757 0.980217 0.46965  0.0967610483871
 C1 0.163348 0.805508 0.95249  -0.115541451613
 C1 0.663358 0.805504 0.95250  -0.115541451613
 C1 0.105665 0.796548 0.66851  -0.115541451613
 C1 0.605675 0.796553 0.66852  -0.115541451613
 C3 0.219062 0.875142 0.93809  -0.120543534946
 C3 0.719069 0.875146 0.93810  -0.120543534946
 C3 0.404296 0.965386 0.51502  -0.120543534946
 C3 0.904307 0.965341 0.51502  -0.120543534946
 C3 0.438858 0.955576 0.36391  -0.120543534946
 C3 0.938864 0.955622 0.36392  -0.120543534946
 C5 0.331388 0.928012 0.45642  0.170756048387
 C5 0.831398 0.927991 0.4564  0.170756048387
 C5 0.364803 0.919133 0.31018  0.170756048387
 C5 0.864809 0.919186 0.31019  0.170756048387
 S1 0.344357 0.8373 0.74153  0.122308548387
 S1 0.84436 0.837299 0.74156  0.122308548387
 S1 0.410669 0.589384 0.82160  0.122308548387
 S1 0.910663 0.589377 0.8216  0.122308548387
 S1 0.405721 0.257787 0.15970  0.122308548387
 S1 0.905739 0.257768 0.1597  0.122308548387
 S1 0.339415 0.177934 0.40758  0.122308548387
 S1 0.839425 0.177935 0.40759  0.122308548387
 S1 0.155703 0.162715 0.25847  0.122308548387
 S1 0.655707 0.162722 0.2584  0.122308548387
 S1 0.089401 0.410606 0.17829  0.122308548387
 S1 0.589395 0.410612 0.17833  0.122308548387
 S1 0.094308 0.742269 0.84026  0.122308548387
 S1 0.594324 0.742259 0.84027  0.122308548387
 S1 0.16064 0.822031 0.59237  0.122308548387
 S1 0.660645 0.822051 0.59238  0.122308548387
 N1 0.061948 0.352164 0.90291  -0.308733951613
 N1 0.56196 0.352158 0.90286  -0.308733951613
 N1 0.188824 0.095202 0.64500  -0.308733951613
 N1 0.688831 0.095153 0.64500  -0.308733951613
 N1 0.438109 0.64787 0.09716  -0.308733951613
 N1 0.938123 0.647863 0.09711  -0.308733951613
 N1 0.311225 0.904859 0.35497  -0.308733951613
 N1 0.811235 0.904837 0.3549  -0.308733951613
 O1 0.458838 0.124106 0.83624  -0.594243951613
 O1 0.958858 0.124099 0.83625  -0.594243951613
 O1 0.41487 0.386788 0.81487  -0.594243951613
 O1 0.914864 0.386775 0.81487  -0.594243951613
 O1 0.291615 0.30957 0.76097  -0.594243951613
 O1 0.79161 0.309556 0.76098  -0.594243951613
 O1 0.343114 0.041316 0.73071  -0.594243951613
 O1 0.843125 0.041317 0.73075  -0.594243951613
 O1 0.291944 0.160742 0.872  -0.594243951613
 O1 0.791939 0.160745 0.87211  -0.594243951613
 O1 0.335704 0.181289 0.60936  -0.594243951613
 O1 0.835709 0.181285 0.60937  -0.594243951613
 O1 0.458998 0.2352 0.68698  -0.594243951613
 O1 0.959003 0.2352 0.68699  -0.594243951613
 O1 0.407481 0.266578 0.95505  -0.594243951613
 O1 0.90749 0.266544 0.95505  -0.594243951613
 O1 0.04122 0.875913 0.16375  -0.594243951613
 O1 0.541233 0.875915 0.16377  -0.594243951613
 O1 0.085225 0.613232 0.18507  -0.594243951613
 O1 0.585214 0.613227 0.18507  -0.594243951613
 O1 0.208484 0.690415 0.23897  -0.594243951613
 O1 0.708473 0.690419 0.23898  -0.594243951613
 O1 0.156946 0.958678 0.26929  -0.594243951613
 O1 0.656958 0.95869 0.26931  -0.594243951613
 O1 0.208104 0.839264 0.12786  -0.594243951613
 O1 0.708105 0.839277 0.12787  -0.594243951613
 O1 0.164367 0.818666 0.39059  -0.594243951613
 O1 0.664367 0.818675 0.39060  -0.594243951613
 O1 0.041074 0.764798 0.31297  -0.594243951613
 O1 0.541074 0.764807 0.31298  -0.594243951613
 O1 0.092553 0.733476 0.04490  -0.594243951613
 O1 0.592564 0.733457 0.04491  -0.594243951613
