#======================================================================

# CRYSTAL DATA

#----------------------------------------------------------------------

data_VESTA_phase_1


_pd_phase_name                         MOF
_cell_length_a                         13.42300
_cell_length_b                         13.46400
_cell_length_c                         16.48100
_cell_angle_alpha                      89.99500
_cell_angle_beta                       90.02000
_cell_angle_gamma                      89.89300
_symmetry_space_group_name_H-M         "P 1"
_symmetry_Int_Tables_number            1

loop_
_symmetry_equiv_pos_as_xyz
   "x, y, z"

loop_
   _atom_site_label
   _atom_site_fract_x
   _atom_site_fract_y
   _atom_site_fract_z
 _atom_site_charge
 Al1 0.0 0.0 0.  1.78926394737
 Al1 0.500012 0.0 0.  1.78926394737
 Al1 0.250003 0.5 0.50002  1.78926394737
 Al1 0.750036 0.499997 0.4999  1.78926394737
 Al1 0.250011 0.999998 0.99998  1.78926394737
 Al1 0.750013 2e-06 1.4e-0  1.78926394737
 Al1 0.0 0.499998 0.49999  1.78926394737
 Al1 0.500019 0.499998 0.49999  1.78926394737
 H1 0.125201 0.869719 0.98723  0.515783947368
 H1 0.625214 0.86987 0.98664  0.515783947368
 H2 0.285005 0.307687 0.69053  0.104776447368
 H2 0.785129 0.307666 0.69057  0.104776447368
 H2 0.284554 0.192304 0.8107  0.104776447368
 H2 0.784628 0.192296 0.81075  0.104776447368
 H2 0.465563 0.307026 0.68900  0.104776447368
 H2 0.965458 0.30701 0.68904  0.104776447368
 H2 0.465221 0.191668 0.80921  0.104776447368
 H2 0.96517 0.191623 0.80922  0.104776447368
 H1 0.124818 0.630024 0.48623  0.515783947368
 H1 0.624831 0.630389 0.48772  0.515783947368
 H2 0.464993 0.192259 0.19040  0.104776447368
 H2 0.965081 0.192196 0.19046  0.104776447368
 H2 0.465326 0.307639 0.31056  0.104776447368
 H2 0.965447 0.307544 0.31065  0.104776447368
 H2 0.284624 0.193091 0.1891  0.104776447368
 H2 0.784562 0.193057 0.18920  0.104776447368
 H2 0.284828 0.308444 0.30932  0.104776447368
 H2 0.784735 0.308415 0.30938  0.104776447368
 H1 0.374825 0.130126 0.01334  0.515783947368
 H1 0.874838 0.130278 0.01275  0.515783947368
 H2 0.214909 0.69233 0.30941  0.104776447368
 H2 0.715034 0.69231 0.30946  0.104776447368
 H2 0.215411 0.807702 0.18923  0.104776447368
 H2 0.715485 0.807694 0.18927  0.104776447368
 H2 0.03458 0.692987 0.31094  0.104776447368
 H2 0.534476 0.69297 0.3109  0.104776447368
 H2 0.034869 0.808374 0.19077  0.104776447368
 H2 0.534817 0.80833 0.19078  0.104776447368
 H1 0.375208 0.369608 0.51227  0.515783947368
 H1 0.875221 0.369973 0.51375  0.515783947368
 H2 0.034958 0.8078 0.80952  0.104776447368
 H2 0.535046 0.807737 0.80958  0.104776447368
 H2 0.034592 0.692454 0.68934  0.104776447368
 H2 0.534713 0.692359 0.68943  0.104776447368
 H2 0.215476 0.80694 0.81079  0.104776447368
 H2 0.715415 0.806905 0.81084  0.104776447368
 H2 0.215304 0.691582 0.6906  0.104776447368
 H2 0.715211 0.691553 0.6906  0.104776447368
 C1 0.125271 0.381714 0.61121  0.742331447368
 C1 0.625423 0.381687 0.61119  0.742331447368
 C2 0.125227 0.313403 0.68262  -0.138732302632
 C2 0.625355 0.313397 0.68262  -0.138732302632
 C3 0.215499 0.281474 0.71684  -0.0531804276316
 C3 0.71561 0.281466 0.7168  -0.0531804276316
 C1 0.12474 0.117918 0.88860  0.742331447368
 C1 0.624799 0.117939 0.8886  0.742331447368
 C2 0.124836 0.185752 0.81674  -0.138732302632
 C2 0.624909 0.185768 0.81675  -0.138732302632
 C3 0.21531 0.218007 0.78339  -0.0531804276316
 C3 0.715395 0.218009 0.78342  -0.0531804276316
 C3 0.03478 0.281087 0.71602  -0.0531804276316
 C3 0.534892 0.2811 0.71601  -0.0531804276316
 C3 0.034553 0.217622 0.78257  -0.0531804276316
 C3 0.534638 0.217649 0.78256  -0.0531804276316
 C1 0.124802 0.118305 0.11120  0.742331447368
 C1 0.624751 0.118297 0.11121  0.742331447368
 C2 0.124833 0.186586 0.18263  -0.138732302632
 C2 0.624772 0.186599 0.18263  -0.138732302632
 C3 0.034546 0.21845 0.21681  -0.0531804276316
 C3 0.534476 0.218496 0.21677  -0.0531804276316
 C1 0.125219 0.382049 0.38862  0.742331447368
 C1 0.625105 0.382086 0.38860  0.742331447368
 C2 0.12514 0.314216 0.31676  -0.138732302632
 C2 0.625043 0.314249 0.31675  -0.138732302632
 C3 0.034688 0.281902 0.2833  -0.0531804276316
 C3 0.534602 0.281962 0.28332  -0.0531804276316
 C3 0.215258 0.218953 0.21609  -0.0531804276316
 C3 0.71519 0.218944 0.21611  -0.0531804276316
 C3 0.215439 0.282403 0.28263  -0.0531804276316
 C3 0.715354 0.282402 0.28266  -0.0531804276316
 C1 0.374615 0.61831 0.38879  0.742331447368
 C1 0.874768 0.618283 0.38877  0.742331447368
 C2 0.374683 0.686599 0.31737  -0.138732302632
 C2 0.874812 0.686593 0.3173  -0.138732302632
 C3 0.284429 0.718531 0.28312  -0.0531804276316
 C3 0.78454 0.718523 0.28314  -0.0531804276316
 C1 0.37524 0.882058 0.11137  0.742331447368
 C1 0.875299 0.882079 0.11138  0.742331447368
 C2 0.37513 0.81423 0.18323  -0.138732302632
 C2 0.875203 0.814246 0.18324  -0.138732302632
 C3 0.284644 0.781989 0.21657  -0.0531804276316
 C3 0.784729 0.78199 0.21659  -0.0531804276316
 C3 0.465147 0.718896 0.28398  -0.0531804276316
 C3 0.965259 0.71891 0.28396  -0.0531804276316
 C3 0.465401 0.782349 0.21742  -0.0531804276316
 C3 0.965486 0.782376 0.21742  -0.0531804276316
 C1 0.375288 0.8817 0.88877  0.742331447368
 C1 0.875237 0.881692 0.88878  0.742331447368
 C2 0.375267 0.813398 0.81736  -0.138732302632
 C2 0.875206 0.81341 0.81736  -0.138732302632
 C3 0.465562 0.7815 0.78321  -0.0531804276316
 C3 0.965493 0.781547 0.78317  -0.0531804276316
 C1 0.374934 0.617912 0.61138  0.742331447368
 C1 0.874819 0.617947 0.61136  0.742331447368
 C2 0.374996 0.685749 0.6832  -0.138732302632
 C2 0.874899 0.685782 0.68322  -0.138732302632
 C3 0.465437 0.718035 0.71667  -0.0531804276316
 C3 0.965351 0.718096 0.71662  -0.0531804276316
 C3 0.284849 0.781053 0.78387  -0.0531804276316
 C3 0.784781 0.781043 0.78390  -0.0531804276316
 C3 0.284685 0.717596 0.71733  -0.0531804276316
 C3 0.7846 0.717594 0.71735  -0.0531804276316
 O1 0.125118 0.940029 0.  -1.13229605263
 O1 0.625128 0.940009 0.  -1.13229605263
 O2 0.040095 0.092233 0.91650  -0.646583552632
 O2 0.540157 0.092233 0.91650  -0.646583552632
 O2 0.040715 0.408077 0.58320  -0.646583552632
 O2 0.54088 0.408055 0.58318  -0.646583552632
 O2 0.209398 0.092089 0.91660  -0.646583552632
 O2 0.709463 0.092124 0.91663  -0.646583552632
 O2 0.209769 0.408016 0.58331  -0.646583552632
 O2 0.709954 0.407935 0.5832  -0.646583552632
 O1 0.124909 0.560005 0.50005  -1.13229605263
 O1 0.624927 0.559943 0.49998  -1.13229605263
 O2 0.209879 0.407733 0.41655  -0.646583552632
 O2 0.709738 0.407823 0.41651  -0.646583552632
 O2 0.209347 0.091961 0.08321  -0.646583552632
 O2 0.709288 0.091936 0.08323  -0.646583552632
 O2 0.040572 0.407886 0.41658  -0.646583552632
 O2 0.540443 0.407877 0.41659  -0.646583552632
 O2 0.040285 0.092019 0.08327  -0.646583552632
 O2 0.540231 0.092012 0.08327  -0.646583552632
 O1 0.374911 0.059988 0.99995  -1.13229605263
 O1 0.874921 0.059968 0.99998  -1.13229605263
 O2 0.459882 0.907764 0.08349  -0.646583552632
 O2 0.959944 0.907764 0.08348  -0.646583552632
 O2 0.459159 0.591942 0.41680  -0.646583552632
 O2 0.959324 0.59192 0.41679  -0.646583552632
 O2 0.290576 0.907873 0.08336  -0.646583552632
 O2 0.790641 0.907908 0.08338  -0.646583552632
 O2 0.290085 0.592062 0.41671  -0.646583552632
 O2 0.790269 0.591981 0.41668  -0.646583552632
 O1 0.375112 0.440053 0.50000  -1.13229605263
 O1 0.87513 0.439992 0.49993  -1.13229605263
 O2 0.290301 0.592174 0.58347  -0.646583552632
 O2 0.79016 0.592264 0.58343  -0.646583552632
 O2 0.290751 0.908061 0.91675  -0.646583552632
 O2 0.790692 0.908036 0.91677  -0.646583552632
 O2 0.459596 0.592119 0.58339  -0.646583552632
 O2 0.959467 0.592111 0.58340  -0.646583552632
 O2 0.459807 0.907985 0.9167  -0.646583552632
 O2 0.959754 0.907978 0.91672  -0.646583552632
