#======================================================================

# CRYSTAL DATA

#----------------------------------------------------------------------

data_VESTA_phase_1


_pd_phase_name                         MOF
_cell_length_a                         16.01900
_cell_length_b                         20.37700
_cell_length_c                         12.16100
_cell_angle_alpha                      114.72900
_cell_angle_beta                       98.09100
_cell_angle_gamma                      89.99000
_symmetry_space_group_name_H-M         "P 1"
_symmetry_Int_Tables_number            1

loop_
_symmetry_equiv_pos_as_xyz
   "x, y, z"

loop_
   _atom_site_label
   _atom_site_fract_x
   _atom_site_fract_y
   _atom_site_fract_z
 _atom_site_charge
 Cd1 7e-06 0.999986 0.50002  0.842416896552
 Cd1 1e-05 0.499985 0.50002  0.842416896552
 Cd1 0.499997 0.999986 0.50002  0.842416896552
 Cd1 0.500001 0.499985 0.50002  0.842416896552
 Cd1 0.250001 0.249987 0.50001  0.842416896552
 Cd1 0.250002 0.749982 0.50001  0.842416896552
 Cd1 0.749998 0.249988 0.50002  0.842416896552
 Cd1 0.749999 0.749983 0.50001  0.842416896552
 H1 0.487712 0.402036 0.64850  0.110586896552
 H1 0.487712 0.902034 0.64850  0.110586896552
 H1 0.987701 0.402035 0.64849  0.110586896552
 H1 0.987701 0.902033 0.64849  0.110586896552
 H1 0.445382 0.403499 0.837  0.110586896552
 H1 0.445379 0.903498 0.83759  0.110586896552
 H1 0.945373 0.403498 0.83759  0.110586896552
 H1 0.945371 0.903497 0.83759  0.110586896552
 H1 0.35128 0.115009 0.90992  0.110586896552
 H1 0.351278 0.615003 0.90992  0.110586896552
 H1 0.85128 0.115012 0.90993  0.110586896552
 H1 0.851277 0.615006 0.9099  0.110586896552
 H1 0.399479 0.104726 0.71992  0.110586896552
 H1 0.399475 0.604721 0.71992  0.110586896552
 H1 0.899475 0.104728 0.7199  0.110586896552
 H1 0.899471 0.604723 0.71992  0.110586896552
 H1 0.261376 0.077903 0.3512  0.110586896552
 H1 0.261377 0.577898 0.35127  0.110586896552
 H1 0.761372 0.077904 0.35128  0.110586896552
 H1 0.761375 0.577899 0.35128  0.110586896552
 H1 0.303514 0.484824 0.16211  0.110586896552
 H1 0.303516 0.984826 0.16211  0.110586896552
 H1 0.80351 0.484825 0.16211  0.110586896552
 H1 0.803512 0.984828 0.16211  0.110586896552
 H1 0.400216 0.160029 0.09156  0.110586896552
 H1 0.400217 0.660024 0.09156  0.110586896552
 H1 0.900218 0.160031 0.0915  0.110586896552
 H1 0.900217 0.660026 0.09156  0.110586896552
 H1 0.351906 0.244754 0.28139  0.110586896552
 H1 0.351905 0.744749 0.28139  0.110586896552
 H1 0.851908 0.244756 0.28140  0.110586896552
 H1 0.851906 0.744751 0.28140  0.110586896552
 H1 0.0123 0.097935 0.35154  0.110586896552
 H1 0.012299 0.597932 0.35154  0.110586896552
 H1 0.51229 0.097934 0.3515  0.110586896552
 H1 0.512289 0.597932 0.35153  0.110586896552
 H1 0.054629 0.09647 0.16244  0.110586896552
 H1 0.054629 0.596469 0.16244  0.110586896552
 H1 0.554621 0.096469 0.16244  0.110586896552
 H1 0.554619 0.596468 0.16244  0.110586896552
 H1 0.14872 0.38496 0.09011  0.110586896552
 H1 0.148717 0.884954 0.09010  0.110586896552
 H1 0.648721 0.384963 0.09011  0.110586896552
 H1 0.648717 0.884957 0.09011  0.110586896552
 H1 0.100525 0.395243 0.28011  0.110586896552
 H1 0.100524 0.89524 0.28011  0.110586896552
 H1 0.600523 0.395246 0.2801  0.110586896552
 H1 0.60052 0.895242 0.28011  0.110586896552
 H1 0.238623 0.422071 0.6487  0.110586896552
 H1 0.238628 0.922066 0.64875  0.110586896552
 H1 0.738622 0.422073 0.64876  0.110586896552
 H1 0.738626 0.922067 0.64876  0.110586896552
 H1 0.196486 0.015141 0.83792  0.110586896552
 H1 0.196491 0.515143 0.83793  0.110586896552
 H1 0.696484 0.015142 0.83793  0.110586896552
 H1 0.696486 0.515145 0.83793  0.110586896552
 H1 0.099784 0.339939 0.90847  0.110586896552
 H1 0.099783 0.839936 0.90846  0.110586896552
 H1 0.599785 0.339941 0.90847  0.110586896552
 H1 0.599783 0.839937 0.90847  0.110586896552
 H1 0.148092 0.255217 0.71863  0.110586896552
 H1 0.148093 0.755212 0.71863  0.110586896552
 H1 0.648095 0.255218 0.71864  0.110586896552
 H1 0.648094 0.755213 0.71863  0.110586896552
 H2 0.37473 0.45971 7.1e-0  0.320146896552
 H2 0.374732 0.959711 7e-0  0.320146896552
 H2 0.874726 0.459711 7.3e-0  0.320146896552
 H2 0.874728 0.959712 7.3e-0  0.320146896552
 H2 0.125275 0.040253 0.99997  0.320146896552
 H2 0.125273 0.540255 0.9999  0.320146896552
 H2 0.625271 0.040255 0.99997  0.320146896552
 H2 0.625273 0.540256 0.99997  0.320146896552
 C1 0.070533 0.326538 0.41952  0.361606896552
 C1 0.070534 0.826535 0.41952  0.361606896552
 C1 0.570528 0.326539 0.41952  0.361606896552
 C1 0.57053 0.826537 0.41952  0.361606896552
 C2 0.398328 0.011367 0.89552  0.276736896552
 C2 0.398337 0.511366 0.8955  0.276736896552
 C2 0.898323 0.011368 0.89552  0.276736896552
 C2 0.898329 0.511365 0.89552  0.276736896552
 C3 0.458923 0.448847 0.71062  0.208939396552
 C3 0.458918 0.948844 0.71062  0.208939396552
 C3 0.95891 0.448845 0.71062  0.208939396552
 C3 0.958909 0.948844 0.71062  0.208939396552
 C4 0.4351 0.450176 0.81654  -0.301460603448
 C4 0.435107 0.950178 0.81654  -0.301460603448
 C4 0.935097 0.450178 0.81654  -0.301460603448
 C4 0.9351 0.950179 0.81654  -0.301460603448
 C4 0.384186 0.067885 0.85880  -0.301460603448
 C4 0.38418 0.567878 0.85879  -0.301460603448
 C4 0.884184 0.067888 0.85880  -0.301460603448
 C4 0.88418 0.567881 0.85880  -0.301460603448
 C3 0.410161 0.061879 0.75077  0.208939396552
 C3 0.410166 0.561877 0.75078  0.208939396552
 C3 0.910156 0.06188 0.7507  0.208939396552
 C3 0.910157 0.561877 0.7507  0.208939396552
 C1 0.179402 0.116562 0.58015  0.361606896552
 C1 0.179404 0.61656 0.58015  0.361606896552
 C1 0.679396 0.116563 0.58015  0.361606896552
 C1 0.679398 0.61656 0.58015  0.361606896552
 C2 0.351841 0.063699 0.10503  0.276736896552
 C2 0.351852 0.563694 0.1050  0.276736896552
 C2 0.85184 0.0637 0.10503  0.276736896552
 C2 0.851845 0.563695 0.10503  0.276736896552
 C3 0.290658 0.093629 0.2894  0.208939396552
 C3 0.290668 0.593624 0.28948  0.208939396552
 C3 0.790657 0.09363 0.28948  0.208939396552
 C3 0.790662 0.593625 0.28948  0.208939396552
 C4 0.314365 0.042013 0.18352  -0.301460603448
 C4 0.314359 0.542008 0.18352  -0.301460603448
 C4 0.814361 0.042014 0.18353  -0.301460603448
 C4 0.814362 0.542009 0.18352  -0.301460603448
 C4 0.366704 0.138524 0.14223  -0.301460603448
 C4 0.366697 0.638519 0.14222  -0.301460603448
 C4 0.866703 0.138525 0.14223  -0.301460603448
 C4 0.866701 0.638521 0.1422  -0.301460603448
 C3 0.340718 0.186525 0.25019  0.208939396552
 C3 0.340726 0.68652 0.25020  0.208939396552
 C3 0.84072 0.186526 0.25020  0.208939396552
 C3 0.840722 0.686521 0.25020  0.208939396552
 C1 0.429471 0.173433 0.58051  0.361606896552
 C1 0.429473 0.673431 0.58051  0.361606896552
 C1 0.929467 0.173435 0.58051  0.361606896552
 C1 0.929468 0.673432 0.5805  0.361606896552
 C2 0.101679 0.488604 0.10451  0.276736896552
 C2 0.101673 0.988597 0.1045  0.276736896552
 C2 0.601668 0.488603 0.10451  0.276736896552
 C2 0.601668 0.988598 0.10451  0.276736896552
 C3 0.041088 0.051123 0.28941  0.208939396552
 C3 0.041098 0.551125 0.28942  0.208939396552
 C3 0.541079 0.051123 0.28941  0.208939396552
 C3 0.541083 0.551123 0.28941  0.208939396552
 C4 0.064903 0.04979 0.18349  -0.301460603448
 C4 0.064896 0.549786 0.18349  -0.301460603448
 C4 0.564896 0.04979 0.18349  -0.301460603448
 C4 0.564895 0.549789 0.18349  -0.301460603448
 C4 0.11581 0.432081 0.1412  -0.301460603448
 C4 0.115818 0.932081 0.14123  -0.301460603448
 C4 0.615814 0.432086 0.1412  -0.301460603448
 C4 0.615815 0.932082 0.14123  -0.301460603448
 C3 0.089848 0.438093 0.24926  0.208939396552
 C3 0.08984 0.938086 0.24925  0.208939396552
 C3 0.589838 0.438092 0.24926  0.208939396552
 C3 0.589835 0.938087 0.2492  0.208939396552
 C1 0.320604 0.38341 0.41988  0.361606896552
 C1 0.320605 0.883406 0.41988  0.361606896552
 C1 0.820596 0.38341 0.41988  0.361606896552
 C1 0.820599 0.883408 0.41988  0.361606896552
 C2 0.148165 0.436271 0.89500  0.276736896552
 C2 0.148155 0.936267 0.89499  0.276736896552
 C2 0.648154 0.436273 0.89500  0.276736896552
 C2 0.648155 0.936268 0.89500  0.276736896552
 C3 0.209347 0.406345 0.71056  0.208939396552
 C3 0.209338 0.90634 0.71055  0.208939396552
 C3 0.709337 0.406346 0.71056  0.208939396552
 C3 0.709338 0.906341 0.71055  0.208939396552
 C4 0.185629 0.457959 0.81650  -0.301460603448
 C4 0.185644 0.957954 0.81651  -0.301460603448
 C4 0.685635 0.45796 0.81651  -0.301460603448
 C4 0.685639 0.957956 0.81651  -0.301460603448
 C4 0.13329 0.361446 0.857  -0.301460603448
 C4 0.133302 0.861442 0.85780  -0.301460603448
 C4 0.633298 0.361447 0.85781  -0.301460603448
 C4 0.633299 0.861443 0.85780  -0.301460603448
 C3 0.159287 0.313446 0.74983  0.208939396552
 C3 0.159276 0.813442 0.74982  0.208939396552
 C3 0.65928 0.313448 0.74983  0.208939396552
 C3 0.659278 0.813443 0.74983  0.208939396552
 S1 0.098035 0.24335 0.3506  -0.429748103448
 S1 0.098034 0.743347 0.35065  -0.429748103448
 S1 0.598031 0.243352 0.35065  -0.429748103448
 S1 0.598031 0.743349 0.35065  -0.429748103448
 S1 0.152341 0.067162 0.64821  -0.429748103448
 S1 0.152342 0.567162 0.64822  -0.429748103448
 S1 0.652331 0.067164 0.6482  -0.429748103448
 S1 0.652333 0.567164 0.64822  -0.429748103448
 S1 0.401968 0.25662 0.64938  -0.429748103448
 S1 0.401968 0.756618 0.64938  -0.429748103448
 S1 0.901965 0.256623 0.64938  -0.429748103448
 S1 0.901965 0.75662 0.64938  -0.429748103448
 S1 0.347672 0.432805 0.35181  -0.429748103448
 S1 0.347673 0.932804 0.35181  -0.429748103448
 S1 0.847661 0.432806 0.35181  -0.429748103448
 S1 0.847662 0.932807 0.3518  -0.429748103448
 N1 0.050005 0.386542 0.4693  -0.504628103448
 N1 0.050008 0.88654 0.46938  -0.504628103448
 N1 0.55 0.386544 0.46939  -0.504628103448
 N1 0.550003 0.886542 0.46939  -0.504628103448
 N2 0.448342 0.004394 0.67792  -0.356258103448
 N2 0.448341 0.50439 0.67792  -0.356258103448
 N2 0.948335 0.004394 0.67792  -0.356258103448
 N2 0.948335 0.504391 0.67792  -0.356258103448
 N1 0.199581 0.152067 0.53078  -0.504628103448
 N1 0.199583 0.652063 0.53078  -0.504628103448
 N1 0.699578 0.152068 0.53078  -0.504628103448
 N1 0.69958 0.652063 0.53078  -0.504628103448
 N2 0.301856 0.165493 0.32255  -0.356258103448
 N2 0.301851 0.665488 0.32254  -0.356258103448
 N2 0.801854 0.165495 0.32255  -0.356258103448
 N2 0.801853 0.66549 0.3225  -0.356258103448
 N1 0.450001 0.113428 0.53065  -0.504628103448
 N1 0.450004 0.613427 0.53065  -0.504628103448
 N1 0.949995 0.11343 0.53065  -0.504628103448
 N1 0.949998 0.613428 0.53065  -0.504628103448
 N2 0.051659 0.495574 0.32211  -0.356258103448
 N2 0.051667 0.995575 0.32211  -0.356258103448
 N2 0.551656 0.495577 0.32211  -0.356258103448
 N2 0.55166 0.995575 0.32211  -0.356258103448
 N1 0.300419 0.347908 0.46925  -0.504628103448
 N1 0.300421 0.847903 0.46925  -0.504628103448
 N1 0.800415 0.347908 0.46925  -0.504628103448
 N1 0.800418 0.847903 0.46925  -0.504628103448
 N2 0.19814 0.334479 0.67748  -0.356258103448
 N2 0.198149 0.834475 0.67748  -0.356258103448
 N2 0.698145 0.334481 0.67749  -0.356258103448
 N2 0.698147 0.834476 0.67748  -0.356258103448
 N3 0.375009 0.00978 0.00024  -0.372593103448
 N3 0.375006 0.509776 0.  -0.372593103448
 N3 0.875006 0.009782 0.00024  -0.372593103448
 N3 0.875009 0.509777 0.00024  -0.372593103448
 N3 0.124993 0.490188 0.99980  -0.372593103448
 N3 0.124999 0.990185 0.99980  -0.372593103448
 N3 0.624992 0.49019 0.99980  -0.372593103448
 N3 0.624995 0.990186 0.99980  -0.372593103448
