#======================================================================

# CRYSTAL DATA

#----------------------------------------------------------------------

data_VESTA_phase_1


_pd_phase_name                         MOF
_cell_length_a                         18.48800
_cell_length_b                         18.47500
_cell_length_c                         18.45100
_cell_angle_alpha                      59.88800
_cell_angle_beta                       59.92300
_cell_angle_gamma                      59.96600
_symmetry_space_group_name_H-M         "P 1"
_symmetry_Int_Tables_number            1

loop_
_symmetry_equiv_pos_as_xyz
   "x, y, z"

loop_
   _atom_site_label
   _atom_site_fract_x
   _atom_site_fract_y
   _atom_site_fract_z
 _atom_site_charge
 Zn1 0.611663 0.785329 0.61131  1.11923459906
 Zn1 0.198571 0.024371 0.19873  1.11923459906
 Zn1 0.611481 0.61131 0.78564  1.11923459906
 Zn1 0.198733 0.198712 0.02399  1.11923459906
 Zn1 0.785284 0.611553 0.61141  1.11923459906
 Zn1 0.024701 0.198527 0.19873  1.11923459906
 Zn1 0.611743 0.611399 0.6111  1.11923459906
 Zn1 0.198528 0.198523 0.1986  1.11923459906
 Zn1 0.214738 0.38841 0.38856  1.11923459906
 Zn1 0.975322 0.801435 0.80123  1.11923459906
 Zn1 0.388539 0.388655 0.2143  1.11923459906
 Zn1 0.801287 0.801252 0.97598  1.11923459906
 Zn1 0.38836 0.214636 0.38866  1.11923459906
 Zn1 0.801452 0.975592 0.80124  1.11923459906
 Zn1 0.388281 0.388564 0.38879  1.11923459906
 Zn1 0.801495 0.801444 0.80135  1.11923459906
 H1 0.836833 0.069432 0.35988  0.105054599057
 H1 0.740943 0.973712 0.45508  0.105054599057
 H1 0.359518 0.836658 0.06971  0.105054599057
 H1 0.454943 0.740646 0.97414  0.105054599057
 H1 0.069189 0.359628 0.83610  0.105054599057
 H1 0.973242 0.455061 0.74047  0.105054599057
 H1 0.069256 0.836538 0.35963  0.105054599057
 H1 0.973494 0.740719 0.45484  0.105054599057
 H1 0.836982 0.359596 0.06981  0.105054599057
 H1 0.740898 0.455016 0.97428  0.105054599057
 H1 0.359837 0.069342 0.83603  0.105054599057
 H1 0.455245 0.973429 0.74037  0.105054599057
 H1 0.356594 0.069499 0.35740  0.105054599057
 H1 0.452389 0.974275 0.45278  0.105054599057
 H1 0.357322 0.836668 0.35710  0.105054599057
 H1 0.453722 0.740817 0.45295  0.105054599057
 H1 0.35654 0.356979 0.06970  0.105054599057
 H1 0.452186 0.452491 0.97467  0.105054599057
 H1 0.357641 0.357308 0.83606  0.105054599057
 H1 0.453875 0.453327 0.740  0.105054599057
 H1 0.069574 0.356943 0.35725  0.105054599057
 H1 0.974297 0.452648 0.45270  0.105054599057
 H1 0.837222 0.356947 0.35711  0.105054599057
 H1 0.74129 0.453248 0.45304  0.105054599057
 H1 0.930771 0.163422 0.64034  0.105054599057
 H1 0.026533 0.25924 0.54513  0.105054599057
 H1 0.163041 0.640356 0.9301  0.105054599057
 H1 0.259124 0.544936 0.02569  0.105054599057
 H1 0.640187 0.930621 0.1639  0.105054599057
 H1 0.544777 0.026534 0.25960  0.105054599057
 H1 0.163194 0.930527 0.64009  0.105054599057
 H1 0.259084 0.026247 0.544  0.105054599057
 H1 0.640513 0.163305 0.9302  0.105054599057
 H1 0.545086 0.259317 0.02582  0.105054599057
 H1 0.930834 0.640324 0.16387  0.105054599057
 H1 0.02678 0.544891 0.25950  0.105054599057
 H1 0.93045 0.643012 0.64272  0.105054599057
 H1 0.025727 0.547307 0.54727  0.105054599057
 H1 0.162801 0.643001 0.6428  0.105054599057
 H1 0.258733 0.546701 0.5469  0.105054599057
 H1 0.643486 0.642985 0.93027  0.105054599057
 H1 0.547844 0.547469 0.02529  0.105054599057
 H1 0.642391 0.642643 0.16390  0.105054599057
 H1 0.546163 0.546618 0.25957  0.105054599057
 H1 0.643431 0.930464 0.64257  0.105054599057
 H1 0.547636 0.025688 0.54719  0.105054599057
 H1 0.642688 0.163295 0.64288  0.105054599057
 H1 0.546288 0.259146 0.54703  0.105054599057
 C1 0.866068 0.997405 0.38105  -0.0524304009434
 C1 0.812783 0.944174 0.43394  -0.0524304009434
 C1 0.380856 0.865931 0.9975  -0.0524304009434
 C1 0.433851 0.812565 0.94441  -0.0524304009434
 C1 0.99728 0.380899 0.86566  -0.0524304009434
 C1 0.943898 0.433906 0.81253  -0.0524304009434
 C1 0.997341 0.865886 0.38091  -0.0524304009434
 C1 0.944072 0.812641 0.43380  -0.0524304009434
 C1 0.866134 0.380879 0.99764  -0.0524304009434
 C1 0.812733 0.433879 0.94452  -0.0524304009434
 C1 0.381043 0.99732 0.86558  -0.0524304009434
 C1 0.434032 0.943972 0.81243  -0.0524304009434
 C2 0.293891 0.016108 0.29430  0.714722515723
 C3 0.351288 0.958725 0.35157  -0.127066650943
 C1 0.378 0.997612 0.3784  -0.0524304009434
 C1 0.431398 0.944526 0.43162  -0.0524304009434
 C1 0.378587 0.865958 0.37847  -0.0524304009434
 C1 0.431991 0.812854 0.43158  -0.0524304009434
 C3 0.458793 0.85177 0.45854  -0.127066650943
 C2 0.516238 0.794501 0.51567  0.714722515723
 C2 0.294049 0.29416 0.01587  0.714722515723
 C3 0.351414 0.351461 0.95851  -0.127066650943
 C1 0.377989 0.378213 0.99767  -0.0524304009434
 C1 0.431308 0.43145 0.94470  -0.0524304009434
 C1 0.37879 0.378578 0.86557  -0.0524304009434
 C1 0.432107 0.431778 0.81257  -0.0524304009434
 C3 0.458762 0.4586 0.85176  -0.127066650943
 C2 0.516128 0.515819 0.79455  0.714722515723
 C2 0.016392 0.293903 0.29426  0.714722515723
 C3 0.959048 0.351274 0.35152  -0.127066650943
 C1 0.997799 0.378161 0.37838  -0.0524304009434
 C1 0.944672 0.431509 0.43157  -0.0524304009434
 C1 0.866389 0.378349 0.37847  -0.0524304009434
 C1 0.813246 0.431695 0.43162  -0.0524304009434
 C3 0.852025 0.458653 0.45856  -0.127066650943
 C2 0.79472 0.516006 0.51575  0.714722515723
 C2 0.016058 0.015975 0.29582  0.714722515723
 C3 0.95872 0.958643 0.35394  -0.127066650943
 C3 0.851403 0.851402 0.46062  -0.127066650943
 C2 0.794162 0.794172 0.51702  0.714722515723
 C2 0.295668 0.016086 0.01581  0.714722515723
 C3 0.35385 0.958683 0.95852  -0.127066650943
 C3 0.460762 0.851204 0.85145  -0.127066650943
 C2 0.517268 0.793932 0.79426  0.714722515723
 C2 0.016191 0.295596 0.01587  0.714722515723
 C3 0.958778 0.353789 0.95860  -0.127066650943
 C3 0.851236 0.460711 0.85157  -0.127066650943
 C2 0.79395 0.517204 0.79437  0.714722515723
 C1 0.002686 0.134074 0.61906  -0.0524304009434
 C1 0.055955 0.187318 0.56617  -0.0524304009434
 C1 0.133889 0.619076 0.00232  -0.0524304009434
 C1 0.18729 0.566071 0.05544  -0.0524304009434
 C1 0.618981 0.002643 0.13438  -0.0524304009434
 C1 0.565993 0.055992 0.1875  -0.0524304009434
 C1 0.133959 0.002555 0.61892  -0.0524304009434
 C1 0.187244 0.055786 0.56604  -0.0524304009434
 C1 0.619171 0.134032 0.00242  -0.0524304009434
 C1 0.566178 0.187398 0.05556  -0.0524304009434
 C1 0.002742 0.619056 0.13430  -0.0524304009434
 C1 0.056125 0.566044 0.18744  -0.0524304009434
 C2 0.98363 0.706055 0.70571  0.714722515723
 C3 0.040975 0.648679 0.64846  -0.127066650943
 C1 0.002224 0.621793 0.62160  -0.0524304009434
 C1 0.055352 0.568444 0.56841  -0.0524304009434
 C1 0.133634 0.621601 0.62151  -0.0524304009434
 C1 0.186778 0.568255 0.56836  -0.0524304009434
 C3 0.148 0.5413 0.54142  -0.127066650943
 C2 0.205305 0.483952 0.48422  0.714722515723
 C2 0.705976 0.705802 0.98410  0.714722515723
 C3 0.648614 0.648498 0.04145  -0.127066650943
 C1 0.622041 0.621745 0.00229  -0.0524304009434
 C1 0.56872 0.56851 0.05526  -0.0524304009434
 C1 0.621244 0.621372 0.13440  -0.0524304009434
 C1 0.567926 0.568173 0.18739  -0.0524304009434
 C3 0.541271 0.541353 0.14820  -0.127066650943
 C2 0.483901 0.484139 0.20541  0.714722515723
 C2 0.706126 0.983857 0.70567  0.714722515723
 C3 0.64873 0.041238 0.64840  -0.127066650943
 C1 0.622019 0.002351 0.62151  -0.0524304009434
 C1 0.568626 0.055437 0.56834  -0.0524304009434
 C1 0.621424 0.134005 0.62151  -0.0524304009434
 C1 0.568025 0.187109 0.56839  -0.0524304009434
 C3 0.541226 0.148193 0.54143  -0.127066650943
 C2 0.483785 0.205462 0.48429  0.714722515723
 C2 0.983968 0.983985 0.70415  0.714722515723
 C3 0.041306 0.041317 0.64603  -0.127066650943
 C3 0.148624 0.148557 0.53935  -0.127066650943
 C2 0.205865 0.205788 0.48295  0.714722515723
 C2 0.983833 0.704362 0.98410  0.714722515723
 C3 0.041245 0.646163 0.04137  -0.127066650943
 C3 0.148786 0.539243 0.14840  -0.127066650943
 C2 0.206072 0.48275 0.20559  0.714722515723
 C2 0.704357 0.983878 0.98416  0.714722515723
 C3 0.646178 0.04128 0.04144  -0.127066650943
 C3 0.539263 0.148759 0.14851  -0.127066650943
 C2 0.482757 0.206031 0.20571  0.714722515723
 O1 0.710301 0.833592 0.53891  -0.613461650943
 O1 0.976541 0.099814 0.27337  -0.613461650943
 O1 0.53905 0.709975 0.8338  -0.613461650943
 O1 0.272973 0.976451 0.09981  -0.613461650943
 O1 0.83333 0.53918 0.71027  -0.613461650943
 O1 0.099927 0.272959 0.97601  -0.613461650943
 O1 0.833532 0.710228 0.53886  -0.613461650943
 O1 0.099804 0.976318 0.27320  -0.613461650943
 O1 0.710085 0.539022 0.83395  -0.613461650943
 O1 0.9767 0.273127 0.09987  -0.613461650943
 O1 0.53932 0.833385 0.7101  -0.613461650943
 O1 0.27324 0.09993 0.97596  -0.613461650943
 O1 0.538206 0.83411 0.53786  -0.613461650943
 O1 0.53865 0.710638 0.53761  -0.613461650943
 O1 0.27187 0.099895 0.27218  -0.613461650943
 O1 0.2718 0.976445 0.27236  -0.613461650943
 O1 0.538042 0.537875 0.83434  -0.613461650943
 O1 0.538529 0.537945 0.7105  -0.613461650943
 O1 0.271957 0.271986 0.09981  -0.613461650943
 O1 0.272036 0.272278 0.97606  -0.613461650943
 O1 0.834204 0.53809 0.53795  -0.613461650943
 O1 0.710956 0.538237 0.53774  -0.613461650943
 O1 0.100093 0.271972 0.27209  -0.613461650943
 O1 0.976827 0.271708 0.2723  -0.613461650943
 O2 0.654939 0.654832 0.6549  -1.27282415094
 O2 0.155208 0.155043 0.15491  -1.27282415094
 O1 0.166494 0.289732 0.46111  -0.613461650943
 O1 0.900223 0.023641 0.7267  -0.613461650943
 O1 0.289937 0.460937 0.16602  -0.613461650943
 O1 0.023324 0.72683 0.900  -0.613461650943
 O1 0.460702 0.166578 0.28982  -0.613461650943
 O1 0.726789 0.900033 0.02400  -0.613461650943
 O1 0.289726 0.166368 0.46106  -0.613461650943
 O1 0.023486 0.900145 0.72659  -0.613461650943
 O1 0.460969 0.289988 0.16610  -0.613461650943
 O1 0.727052 0.023512 0.90015  -0.613461650943
 O1 0.166692 0.460785 0.28970  -0.613461650943
 O1 0.900097 0.726994 0.0239  -0.613461650943
 O1 0.165821 0.461869 0.46202  -0.613461650943
 O1 0.289069 0.461728 0.46222  -0.613461650943
 O1 0.899929 0.727996 0.72787  -0.613461650943
 O1 0.023196 0.728248 0.72761  -0.613461650943
 O1 0.461979 0.46209 0.16562  -0.613461650943
 O1 0.461511 0.462001 0.28944  -0.613461650943
 O1 0.728059 0.727989 0.90015  -0.613461650943
 O1 0.727984 0.727686 0.02391  -0.613461650943
 O1 0.461817 0.165854 0.46210  -0.613461650943
 O1 0.461372 0.289325 0.46236  -0.613461650943
 O1 0.728152 0.90007 0.72779  -0.613461650943
 O1 0.728227 0.02352 0.72760  -0.613461650943
 O2 0.345083 0.345132 0.34506  -1.27282415094
 O2 0.844816 0.84492 0.84506  -1.27282415094
