#======================================================================

# CRYSTAL DATA

#----------------------------------------------------------------------

data_VESTA_phase_1


_pd_phase_name                         MOF
_cell_length_a                         18.39400
_cell_length_b                         18.39400
_cell_length_c                         18.39400
_cell_angle_alpha                      60.41100
_cell_angle_beta                       60.40700
_cell_angle_gamma                      60.41100
_symmetry_space_group_name_H-M         "P 1"
_symmetry_Int_Tables_number            1

loop_
_symmetry_equiv_pos_as_xyz
   "x, y, z"

loop_
   _atom_site_label
   _atom_site_fract_x
   _atom_site_fract_y
   _atom_site_fract_z
 _atom_site_charge
 Zn1 0.206022 0.206087 0.20607  1.12899509434
 Zn1 0.793967 0.793932 0.79393  1.12899509434
 Zn1 0.206967 0.380197 0.20693  1.12899509434
 Zn1 0.206966 0.206941 0.38020  1.12899509434
 Zn1 0.380195 0.206979 0.20697  1.12899509434
 Zn1 0.619794 0.79304 0.79303  1.12899509434
 Zn1 0.793023 0.793077 0.61980  1.12899509434
 Zn1 0.793021 0.619822 0.79307  1.12899509434
 H1 0.048387 0.335888 0.56793  0.12127634434
 H1 0.567922 0.048394 0.33587  0.12127634434
 H1 0.33586 0.567927 0.04839  0.12127634434
 H1 0.664125 0.95164 0.43206  0.12127634434
 H1 0.951591 0.4321 0.66413  0.12127634434
 H1 0.43207 0.664132 0.95162  0.12127634434
 H1 0.951607 0.664131 0.43207  0.12127634434
 H1 0.432068 0.951627 0.66413  0.12127634434
 H1 0.664128 0.432093 0.95161  0.12127634434
 H1 0.335864 0.048382 0.56794  0.12127634434
 H1 0.048402 0.567918 0.33587  0.12127634434
 H1 0.567919 0.335887 0.04838  0.12127634434
 H1 0.049091 0.567422 0.04908  0.12127634434
 H1 0.047081 0.335931 0.04707  0.12127634434
 H1 0.049088 0.049079 0.56742  0.12127634434
 H1 0.047089 0.047092 0.33591  0.12127634434
 H1 0.567409 0.049083 0.04908  0.12127634434
 H1 0.335906 0.04709 0.04709  0.12127634434
 H1 0.43258 0.950933 0.95093  0.12127634434
 H1 0.664083 0.952926 0.95292  0.12127634434
 H1 0.9509 0.950942 0.43258  0.12127634434
 H1 0.952898 0.952928 0.66409  0.12127634434
 H1 0.950899 0.432596 0.95092  0.12127634434
 H1 0.952909 0.664088 0.95293  0.12127634434
 C1 0.026804 0.407783 0.53896  -0.0578261556604
 C1 0.538951 0.026808 0.40777  -0.0578261556604
 C1 0.40776 0.538963 0.02680  -0.0578261556604
 C1 0.592225 0.97321 0.46104  -0.0578261556604
 C1 0.973172 0.461063 0.59223  -0.0578261556604
 C1 0.461038 0.592236 0.97320  -0.0578261556604
 C1 0.973179 0.592235 0.4610  -0.0578261556604
 C1 0.461038 0.973204 0.59223  -0.0578261556604
 C1 0.592228 0.461056 0.97319  -0.0578261556604
 C1 0.407764 0.026802 0.53896  -0.0578261556604
 C1 0.026811 0.538956 0.40777  -0.0578261556604
 C1 0.53895 0.407783 0.02680  -0.0578261556604
 C2 0.110984 0.388588 0.11096  0.68981009434
 C3 0.05364 0.446092 0.05364  -0.12262490566
 C1 0.027202 0.538646 0.02720  -0.0578261556604
 C1 0.026076 0.407809 0.02608  -0.0578261556604
 C2 0.110975 0.11098 0.38858  0.68981009434
 C3 0.053647 0.053641 0.44608  -0.12262490566
 C1 0.027196 0.027207 0.53864  -0.0578261556604
 C1 0.026076 0.026094 0.407  -0.0578261556604
 C2 0.388559 0.110988 0.11099  0.68981009434
 C3 0.44607 0.053656 0.05364  -0.12262490566
 C1 0.538629 0.0272 0.02720  -0.0578261556604
 C1 0.407787 0.026084 0.02608  -0.0578261556604
 C2 0.61143 0.88902 0.88902  0.68981009434
 C3 0.553919 0.946373 0.9463  -0.12262490566
 C1 0.461361 0.972812 0.97281  -0.0578261556604
 C1 0.592202 0.973928 0.97392  -0.0578261556604
 C2 0.889005 0.889048 0.61142  0.68981009434
 C3 0.946352 0.946368 0.55392  -0.12262490566
 C1 0.972787 0.972817 0.46136  -0.0578261556604
 C1 0.973908 0.97393 0.59221  -0.0578261556604
 C2 0.889009 0.61143 0.88904  0.68981009434
 C3 0.946346 0.553927 0.94637  -0.12262490566
 C1 0.972789 0.461373 0.97280  -0.0578261556604
 C1 0.973916 0.59221 0.97392  -0.0578261556604
 C2 0.111595 0.389099 0.38910  0.68981009434
 C3 0.053963 0.446403 0.44640  -0.12262490566
 C2 0.389096 0.11158 0.38911  0.68981009434
 C3 0.446394 0.053958 0.44640  -0.12262490566
 C2 0.389098 0.389117 0.11157  0.68981009434
 C3 0.446394 0.446411 0.05395  -0.12262490566
 C2 0.610893 0.888417 0.61089  0.68981009434
 C3 0.553596 0.946088 0.55360  -0.12262490566
 C2 0.888374 0.610919 0.61090  0.68981009434
 C3 0.946054 0.553615 0.55360  -0.12262490566
 C2 0.610891 0.610902 0.88841  0.68981009434
 C3 0.553595 0.553609 0.94608  -0.12262490566
 O1 0.133865 0.428563 0.30543  -0.61645740566
 O1 0.30543 0.13379 0.42859  -0.61645740566
 O1 0.428565 0.305456 0.13388  -0.61645740566
 O1 0.571425 0.866117 0.69455  -0.61645740566
 O1 0.86615 0.69458 0.57144  -0.61645740566
 O1 0.694555 0.571436 0.8662  -0.61645740566
 O1 0.866131 0.571455 0.69457  -0.61645740566
 O1 0.694559 0.866238 0.5714  -0.61645740566
 O1 0.571424 0.694563 0.86613  -0.61645740566
 O1 0.428564 0.133908 0.30545  -0.61645740566
 O1 0.133845 0.305439 0.42856  -0.61645740566
 O1 0.305433 0.428583 0.133  -0.61645740566
 O2 0.249912 0.249923 0.24992  -1.28300490566
 O2 0.750077 0.750096 0.75008  -1.28300490566
 O1 0.132662 0.304894 0.13273  -0.61645740566
 O1 0.133477 0.428074 0.13340  -0.61645740566
 O1 0.132663 0.132748 0.30488  -0.61645740566
 O1 0.133471 0.133416 0.42807  -0.61645740566
 O1 0.304862 0.132724 0.13271  -0.61645740566
 O1 0.428048 0.133472 0.13344  -0.61645740566
 O1 0.695127 0.867299 0.86728  -0.61645740566
 O1 0.571942 0.866551 0.86656  -0.61645740566
 O1 0.86733 0.867266 0.69512  -0.61645740566
 O1 0.866522 0.866598 0.57193  -0.61645740566
 O1 0.867324 0.695124 0.86727  -0.61645740566
 O1 0.866511 0.571944 0.86660  -0.61645740566
