#======================================================================

# CRYSTAL DATA

#----------------------------------------------------------------------

data_VESTA_phase_1


_pd_phase_name                         MOF
_cell_length_a                         20.97500
_cell_length_b                         18.05600
_cell_length_c                         18.05800
_cell_angle_alpha                      120.05800
_cell_angle_beta                       90.00800
_cell_angle_gamma                      90.00200
_symmetry_space_group_name_H-M         "P 1"
_symmetry_Int_Tables_number            1

loop_
_symmetry_equiv_pos_as_xyz
   "x, y, z"

loop_
   _atom_site_label
   _atom_site_fract_x
   _atom_site_fract_y
   _atom_site_fract_z
 _atom_site_charge
 Zn1 0.461025 0.923424 0.47399  0.739819583333
 Zn1 0.961028 0.923424 0.47  0.739819583333
 Zn1 0.12769 0.550508 0.07647  0.739819583333
 Zn1 0.627693 0.550509 0.07647  0.739819583333
 Zn1 0.294343 0.525686 0.44929  0.739819583333
 Zn1 0.794346 0.525687 0.44929  0.739819583333
 Zn1 0.211021 0.076529 0.52601  0.739819583333
 Zn1 0.711024 0.07653 0.52601  0.739819583333
 Zn1 0.37767 0.449561 0.92357  0.739819583333
 Zn1 0.877673 0.449562 0.92357  0.739819583333
 Zn1 0.044354 0.474252 0.55074  0.739819583333
 Zn1 0.544357 0.474251 0.55074  0.739819583333
 H1 0.409916 0.07114 0.5520  0.265489583333
 H1 0.909918 0.071139 0.5520  0.265489583333
 H2 0.306867 0.294254 0.79112  0.0991445833333
 H2 0.806869 0.294254 0.79112  0.0991445833333
 H2 0.490963 0.335043 0.88619  0.0991445833333
 H2 0.990966 0.335044 0.88619  0.0991445833333
 H2 0.022843 0.184675 0.78187  0.0991445833333
 H2 0.522847 0.184674 0.78187  0.0991445833333
 H2 0.330158 0.14313 0.68278  0.0991445833333
 H2 0.83016 0.14313 0.6827  0.0991445833333
 H2 0.49197 0.041353 0.66725  0.0991445833333
 H2 0.991972 0.041352 0.66725  0.0991445833333
 H2 0.409407 0.016341 0.64611  0.0991445833333
 H2 0.909408 0.016341 0.64611  0.0991445833333
 H2 0.024807 0.149841 0.6255  0.0991445833333
 H2 0.52481 0.149841 0.62551  0.0991445833333
 H2 0.030038 0.195719 0.52273  0.0991445833333
 H2 0.530041 0.195718 0.52273  0.0991445833333
 H2 0.4215 0.070726 0.42243  0.0991445833333
 H2 0.921503 0.070726 0.4224  0.0991445833333
 H2 0.001288 0.063278 0.38899  0.0991445833333
 H2 0.501291 0.063277 0.38899  0.0991445833333
 H2 0.454168 0.15103 0.40347  0.0991445833333
 H2 0.954171 0.15103 0.40347  0.0991445833333
 H2 0.430454 0.274493 0.55394  0.0991445833333
 H2 0.930457 0.274494 0.55394  0.0991445833333
 H2 0.454501 0.268666 0.6449  0.0991445833333
 H2 0.954503 0.268665 0.64499  0.0991445833333
 H2 0.39103 0.203335 0.58001  0.0991445833333
 H2 0.891033 0.203334 0.58001  0.0991445833333
 H1 0.076555 0.480924 0.92876  0.265489583333
 H1 0.576557 0.480923 0.92876  0.265489583333
 H2 0.473522 0.497182 0.70581  0.0991445833333
 H2 0.973525 0.497188 0.70582  0.0991445833333
 H2 0.157654 0.551702 0.66554  0.0991445833333
 H2 0.657656 0.551705 0.6655  0.0991445833333
 H2 0.189423 0.597662 0.81586  0.0991445833333
 H2 0.689423 0.597666 0.81587  0.0991445833333
 H2 0.996701 0.539854 0.85686  0.0991445833333
 H2 0.496703 0.539848 0.85686  0.0991445833333
 H2 0.158433 0.626264 0.95901  0.0991445833333
 H2 0.658433 0.626265 0.95901  0.0991445833333
 H2 0.075868 0.629881 0.98383  0.0991445833333
 H2 0.575869 0.629879 0.98383  0.0991445833333
 H2 0.19147 0.475904 0.85026  0.0991445833333
 H2 0.691472 0.475904 0.85026  0.0991445833333
 H2 0.196749 0.327059 0.8040  0.0991445833333
 H2 0.696752 0.32706 0.8040  0.0991445833333
 H2 0.088161 0.35156 0.92878  0.0991445833333
 H2 0.588165 0.35156 0.92878  0.0991445833333
 H2 0.167966 0.325617 0.93627  0.0991445833333
 H2 0.66797 0.325618 0.93627  0.0991445833333
 H2 0.120906 0.252268 0.84838  0.0991445833333
 H2 0.62091 0.252268 0.8483  0.0991445833333
 H2 0.097227 0.27939 0.7251  0.0991445833333
 H2 0.59723 0.279389 0.72513  0.0991445833333
 H2 0.121226 0.376432 0.73123  0.0991445833333
 H2 0.621228 0.376431 0.73123  0.0991445833333
 H2 0.057723 0.376636 0.79637  0.0991445833333
 H2 0.557725 0.376634 0.79637  0.0991445833333
 H1 0.243248 0.447931 0.51913  0.265489583333
 H1 0.743251 0.447933 0.51913  0.265489583333
 H2 0.140217 0.208856 0.50327  0.0991445833333
 H2 0.640221 0.208857 0.50328  0.0991445833333
 H2 0.324286 0.113765 0.44864  0.0991445833333
 H2 0.824289 0.113766 0.44864  0.0991445833333
 H2 0.356071 0.217964 0.40258  0.0991445833333
 H2 0.856074 0.217966 0.40258  0.0991445833333
 H2 0.163412 0.317068 0.46048  0.0991445833333
 H2 0.663415 0.31707 0.46048  0.0991445833333
 H2 0.325137 0.332421 0.3739  0.0991445833333
 H2 0.82514 0.332423 0.37394  0.0991445833333
 H2 0.242574 0.353582 0.37020  0.0991445833333
 H2 0.742577 0.353584 0.37020  0.0991445833333
 H2 0.358222 0.374559 0.52425  0.0991445833333
 H2 0.858225 0.374562 0.52425  0.0991445833333
 H2 0.363483 0.477494 0.67306  0.0991445833333
 H2 0.863485 0.477499 0.67306  0.0991445833333
 H2 0.25479 0.577521 0.64847  0.0991445833333
 H2 0.754791 0.577524 0.64847  0.0991445833333
 H2 0.334562 0.611137 0.67455  0.0991445833333
 H2 0.834563 0.61114 0.67455  0.0991445833333
 H2 0.287491 0.596606 0.74779  0.0991445833333
 H2 0.787492 0.596611 0.74779  0.0991445833333
 H2 0.264067 0.446096 0.72068  0.0991445833333
 H2 0.764068 0.446101 0.72069  0.0991445833333
 H2 0.288045 0.355068 0.62359  0.0991445833333
 H2 0.788047 0.355073 0.62360  0.0991445833333
 H2 0.224478 0.419983 0.62349  0.0991445833333
 H2 0.72448 0.419986 0.623  0.0991445833333
 H1 0.159912 0.928795 0.4478  0.265489583333
 H1 0.659915 0.928796 0.44784  0.265489583333
 H2 0.05697 0.705702 0.20892  0.0991445833333
 H2 0.556973 0.705703 0.20892  0.0991445833333
 H2 0.240982 0.665178 0.11367  0.0991445833333
 H2 0.740985 0.665179 0.11367  0.0991445833333
 H2 0.272813 0.815597 0.21797  0.0991445833333
 H2 0.772816 0.815599 0.21797  0.0991445833333
 H2 0.080213 0.856862 0.31723  0.0991445833333
 H2 0.580215 0.856864 0.31723  0.0991445833333
 H2 0.241983 0.95879 0.33282  0.0991445833333
 H2 0.741985 0.958792 0.33282  0.0991445833333
 H2 0.159422 0.983766 0.35393  0.0991445833333
 H2 0.659424 0.983768 0.35393  0.0991445833333
 H2 0.274806 0.85016 0.37438  0.0991445833333
 H2 0.774809 0.850161 0.37438  0.0991445833333
 H2 0.2801 0.804277 0.47720  0.0991445833333
 H2 0.780103 0.804275 0.47719  0.0991445833333
 H2 0.171405 0.928998 0.57727  0.0991445833333
 H2 0.671408 0.928997 0.57727  0.0991445833333
 H2 0.251173 0.936638 0.61088  0.0991445833333
 H2 0.751176 0.936636 0.61087  0.0991445833333
 H2 0.204138 0.848773 0.59630  0.0991445833333
 H2 0.70414 0.848771 0.59630  0.0991445833333
 H2 0.180639 0.725219 0.44575  0.0991445833333
 H2 0.680641 0.725219 0.44575  0.0991445833333
 H2 0.204699 0.731146 0.35477  0.0991445833333
 H2 0.704701 0.731146 0.35477  0.0991445833333
 H2 0.141122 0.796276 0.41962  0.0991445833333
 H2 0.641124 0.796277 0.41961  0.0991445833333
 H1 0.32657 0.519143 0.07127  0.265489583333
 H1 0.826573 0.519144 0.07127  0.265489583333
 H2 0.223475 0.502783 0.2941  0.0991445833333
 H2 0.723478 0.502783 0.2941  0.0991445833333
 H2 0.407593 0.448292 0.33455  0.0991445833333
 H2 0.907597 0.448295 0.33455  0.0991445833333
 H2 0.439403 0.40245 0.18429  0.0991445833333
 H2 0.939406 0.402452 0.18429  0.0991445833333
 H2 0.246697 0.460226 0.14317  0.0991445833333
 H2 0.746699 0.460227 0.14317  0.0991445833333
 H2 0.408452 0.373863 0.04114  0.0991445833333
 H2 0.908454 0.373863 0.04114  0.0991445833333
 H2 0.325893 0.370181 0.01624  0.0991445833333
 H2 0.825895 0.370183 0.01624  0.0991445833333
 H2 0.441493 0.524236 0.1498  0.0991445833333
 H2 0.941496 0.524237 0.1498  0.0991445833333
 H2 0.446736 0.673068 0.1960  0.0991445833333
 H2 0.946738 0.673069 0.1960  0.0991445833333
 H2 0.338225 0.648503 0.07114  0.0991445833333
 H2 0.838228 0.648504 0.0711  0.0991445833333
 H2 0.418035 0.674542 0.06380  0.0991445833333
 H2 0.918038 0.674542 0.06380  0.0991445833333
 H2 0.370913 0.747818 0.15162  0.0991445833333
 H2 0.870916 0.747819 0.15162  0.0991445833333
 H2 0.347167 0.720643 0.27481  0.0991445833333
 H2 0.847169 0.720644 0.27481  0.0991445833333
 H2 0.371132 0.623587 0.26869  0.0991445833333
 H2 0.871135 0.623589 0.26869  0.0991445833333
 H2 0.307689 0.623399 0.20347  0.0991445833333
 H2 0.807691 0.6234 0.2034  0.0991445833333
 H1 0.493253 0.551938 0.48084  0.265489583333
 H1 0.993257 0.55194 0.48084  0.265489583333
 H2 0.390166 0.791164 0.49685  0.0991445833333
 H2 0.890168 0.791166 0.4968  0.0991445833333
 H2 0.074339 0.885968 0.55106  0.0991445833333
 H2 0.574342 0.885968 0.55106  0.0991445833333
 H2 0.106141 0.78176 0.59710  0.0991445833333
 H2 0.606143 0.781759 0.59710  0.0991445833333
 H2 0.413375 0.682938 0.53962  0.0991445833333
 H2 0.913378 0.682941 0.53963  0.0991445833333
 H2 0.075121 0.667513 0.6260  0.0991445833333
 H2 0.575124 0.667512 0.62607  0.0991445833333
 H2 0.492554 0.646326 0.62973  0.0991445833333
 H2 0.992558 0.646327 0.6297  0.0991445833333
 H2 0.108222 0.625343 0.47575  0.0991445833333
 H2 0.608224 0.625342 0.47575  0.0991445833333
 H2 0.113442 0.522456 0.32696  0.0991445833333
 H2 0.613445 0.522453 0.32695  0.0991445833333
 H2 0.004828 0.422293 0.35150  0.0991445833333
 H2 0.504831 0.42229 0.35150  0.0991445833333
 H2 0.084615 0.388774 0.32546  0.0991445833333
 H2 0.584619 0.388772 0.32546  0.0991445833333
 H2 0.037508 0.403247 0.25219  0.0991445833333
 H2 0.537512 0.403243 0.25219  0.0991445833333
 H2 0.013944 0.553721 0.27932  0.0991445833333
 H2 0.513946 0.553716 0.27932  0.0991445833333
 H2 0.037948 0.644788 0.37639  0.0991445833333
 H2 0.53795 0.644785 0.3763  0.0991445833333
 H2 0.474431 0.579825 0.37654  0.0991445833333
 H2 0.974435 0.579828 0.3765  0.0991445833333
 C1 0.354164 0.267346 0.78601  0.175184583333
 C1 0.854166 0.267346 0.78601  0.175184583333
 C1 0.457267 0.289928 0.83971  0.175184583333
 C1 0.957269 0.289929 0.83971  0.175184583333
 C2 0.474361 0.206105 0.78124  -0.207675416667
 C2 0.974364 0.206106 0.78124  -0.207675416667
 C3 0.429476 0.151051 0.72180  0.118762916667
 C3 0.929477 0.151051 0.72180  0.118762916667
 C2 0.367926 0.182947 0.72601  -0.207675416667
 C2 0.867928 0.182947 0.72601  -0.207675416667
 C4 0.446765 0.061815 0.65237  -0.0279604166667
 C4 0.946767 0.061815 0.65237  -0.0279604166667
 C5 0.063744 0.048629 0.51256  0.645589583333
 C5 0.563748 0.048629 0.51256  0.645589583333
 C6 0.006406 0.10601 0.56072  -0.0900170833333
 C6 0.506409 0.10601 0.56072  -0.0900170833333
 C7 0.486285 0.16207 0.52246  0.0903295833333
 C7 0.986288 0.16207 0.52246  0.0903295833333
 C8 0.464375 0.108737 0.42939  -0.354697083333
 C8 0.964378 0.108738 0.429  -0.354697083333
 C8 0.437649 0.230513 0.57861  -0.354697083333
 C8 0.937652 0.230513 0.57861  -0.354697083333
 C1 0.020802 0.518999 0.73282  0.175184583333
 C1 0.520805 0.518995 0.7328  0.175184583333
 C1 0.123919 0.550242 0.71052  0.175184583333
 C1 0.62392 0.550243 0.71052  0.175184583333
 C2 0.140954 0.575537 0.79431  -0.207675416667
 C2 0.640956 0.575539 0.79431  -0.207675416667
 C3 0.096042 0.571018 0.84920  0.118762916667
 C3 0.596044 0.571018 0.84920  0.118762916667
 C2 0.034507 0.543328 0.81718  -0.207675416667
 C2 0.534509 0.543324 0.8171  -0.207675416667
 C4 0.113285 0.590752 0.93838  -0.0279604166667
 C4 0.613286 0.590752 0.93838  -0.0279604166667
 C5 0.230389 0.463988 0.95130  0.645589583333
 C5 0.730392 0.463989 0.95130  0.645589583333
 C6 0.173064 0.454824 0.89393  -0.0900170833333
 C6 0.673066 0.454825 0.89393  -0.0900170833333
 C7 0.152967 0.360405 0.83768  0.0903295833333
 C7 0.65297 0.360405 0.83768  0.0903295833333
 C8 0.131066 0.320554 0.89081  -0.354697083333
 C8 0.63107 0.320554 0.89081  -0.354697083333
 C8 0.104368 0.348113 0.76922  -0.354697083333
 C8 0.60437 0.348112 0.76922  -0.354697083333
 C1 0.187491 0.213942 0.48141  0.175184583333
 C1 0.687494 0.213944 0.48141  0.175184583333
 C1 0.29057 0.16023 0.4501  0.175184583333
 C1 0.790574 0.160232 0.45011  0.175184583333
 C2 0.307614 0.218639 0.42475  -0.207675416667
 C2 0.807617 0.218641 0.42475  -0.207675416667
 C3 0.262724 0.278075 0.42925  0.118762916667
 C3 0.762727 0.278077 0.42925  0.118762916667
 C2 0.201201 0.273878 0.45701  -0.207675416667
 C2 0.701205 0.27388 0.45701  -0.207675416667
 C4 0.279979 0.347411 0.40940  -0.0279604166667
 C4 0.779982 0.347413 0.40941  -0.0279604166667
 C5 0.397051 0.487543 0.53609  0.645589583333
 C5 0.897054 0.487544 0.53609  0.645589583333
 C6 0.339766 0.439319 0.54529  -0.0900170833333
 C6 0.839768 0.439322 0.54529  -0.0900170833333
 C7 0.319683 0.477641 0.63969  0.0903295833333
 C7 0.819685 0.477645 0.639  0.0903295833333
 C8 0.297692 0.57067 0.67953  -0.354697083333
 C8 0.797694 0.570674 0.67953  -0.354697083333
 C8 0.271151 0.421428 0.6519  -0.354697083333
 C8 0.771153 0.421432 0.65198  -0.354697083333
 C1 0.104237 0.73268 0.21399  0.175184583333
 C1 0.60424 0.732681 0.21399  0.175184583333
 C1 0.20729 0.71024 0.16019  0.175184583333
 C1 0.707293 0.710241 0.16019  0.175184583333
 C2 0.224359 0.794087 0.21865  -0.207675416667
 C2 0.724362 0.794088 0.21864  -0.207675416667
 C3 0.179493 0.849064 0.27815  0.118762916667
 C3 0.679495 0.849066 0.27815  0.118762916667
 C2 0.117972 0.817098 0.27397  -0.207675416667
 C2 0.617974 0.817099 0.27397  -0.207675416667
 C4 0.196776 0.93828 0.34764  -0.0279604166667
 C4 0.696778 0.938282 0.34764  -0.0279604166667
 C5 0.313758 0.951328 0.48739  0.645589583333
 C5 0.813761 0.951327 0.48739  0.645589583333
 C6 0.256416 0.893944 0.43918  -0.0900170833333
 C6 0.756419 0.893944 0.43918  -0.0900170833333
 C7 0.236311 0.837817 0.47738  0.0903295833333
 C7 0.736314 0.837816 0.47737  0.0903295833333
 C8 0.214317 0.891087 0.57040  -0.354697083333
 C8 0.71432 0.891085 0.57039  -0.354697083333
 C8 0.187778 0.769236 0.42111  -0.354697083333
 C8 0.687779 0.769236 0.4211  -0.354697083333
 C1 0.270765 0.481006 0.26720  0.175184583333
 C1 0.770768 0.481007 0.26720  0.175184583333
 C1 0.373872 0.449776 0.28956  0.175184583333
 C1 0.873875 0.449778 0.28956  0.175184583333
 C2 0.390931 0.424545 0.20580  -0.207675416667
 C2 0.890934 0.424547 0.20580  -0.207675416667
 C3 0.346035 0.42908 0.15089  0.118762916667
 C3 0.846037 0.429081 0.15089  0.118762916667
 C2 0.284494 0.45674 0.18287  -0.207675416667
 C2 0.784496 0.456741 0.18287  -0.207675416667
 C4 0.363298 0.409347 0.06171  -0.0279604166667
 C4 0.8633 0.409348 0.06171  -0.0279604166667
 C5 0.480397 0.536112 0.04876  0.645589583333
 C5 0.9804 0.536112 0.04876  0.645589583333
 C6 0.423077 0.545279 0.10612  -0.0900170833333
 C6 0.92308 0.54528 0.10612  -0.0900170833333
 C7 0.402975 0.639692 0.16234  0.0903295833333
 C7 0.902978 0.639693 0.1623  0.0903295833333
 C8 0.381102 0.679545 0.10919  -0.354697083333
 C8 0.881105 0.679546 0.1091  -0.354697083333
 C8 0.354323 0.65193 0.23070  -0.354697083333
 C8 0.854326 0.651932 0.230  -0.354697083333
 C1 0.437464 0.78602 0.51862  0.175184583333
 C1 0.937467 0.786022 0.51863  0.175184583333
 C1 0.040605 0.839567 0.54969  0.175184583333
 C1 0.540608 0.839567 0.54969  0.175184583333
 C2 0.057654 0.781153 0.57504  -0.207675416667
 C2 0.557657 0.781152 0.57504  -0.207675416667
 C3 0.012727 0.721811 0.57068  0.118762916667
 C3 0.51273 0.72181 0.57067  0.118762916667
 C2 0.451182 0.726075 0.54301  -0.207675416667
 C2 0.951185 0.726078 0.54302  -0.207675416667
 C4 0.029971 0.6525 0.59056  -0.0279604166667
 C4 0.529974 0.652499 0.59056  -0.0279604166667
 C5 0.147045 0.51237 0.46392  0.645589583333
 C5 0.647048 0.51237 0.46392  0.645589583333
 C6 0.089761 0.560581 0.45471  -0.0900170833333
 C6 0.589763 0.560579 0.45471  -0.0900170833333
 C7 0.069657 0.522253 0.36030  0.0903295833333
 C7 0.56966 0.52225 0.36030  0.0903295833333
 C8 0.047717 0.429197 0.32046  -0.354697083333
 C8 0.54772 0.429194 0.32046  -0.354697083333
 C8 0.021075 0.578419 0.34803  -0.354697083333
 C8 0.521077 0.578415 0.34803  -0.354697083333
 Br1 0.447546 0.865294 0.323  -0.51982375
 Br1 0.947551 0.865294 0.323  -0.51982375
 Br1 0.114156 0.458363 0.13442  -0.51982375
 Br1 0.614159 0.458364 0.13442  -0.51982375
 Br1 0.280773 0.675961 0.54128  -0.51982375
 Br1 0.780776 0.675963 0.54128  -0.51982375
 Br1 0.197533 0.134666 0.67620  -0.51982375
 Br1 0.697535 0.134665 0.67620  -0.51982375
 Br1 0.364159 0.541731 0.86564  -0.51982375
 Br1 0.864163 0.541732 0.86564  -0.51982375
 Br1 0.030769 0.323974 0.45875  -0.51982375
 Br1 0.530773 0.323973 0.45875  -0.51982375
 N1 0.398337 0.320995 0.84184  -0.307490416667
 N1 0.89834 0.320996 0.84184  -0.307490416667
 N2 0.453323 0.054698 0.56679  -0.369080416667
 N2 0.953325 0.054697 0.56679  -0.369080416667
 N1 0.065001 0.521291 0.6793  -0.307490416667
 N1 0.565004 0.52129 0.67932  -0.307490416667
 N2 0.119942 0.512181 0.94528  -0.369080416667
 N2 0.619944 0.512181 0.94528  -0.369080416667
 N1 0.231672 0.158124 0.47913  -0.307490416667
 N1 0.731675 0.158126 0.47913  -0.307490416667
 N2 0.286632 0.433092 0.48788  -0.369080416667
 N2 0.786635 0.433094 0.48788  -0.369080416667
 N1 0.148395 0.679097 0.15811  -0.307490416667
 N1 0.648398 0.679098 0.15811  -0.307490416667
 N2 0.203322 0.945277 0.43316  -0.369080416667
 N2 0.703325 0.945277 0.43316  -0.369080416667
 N1 0.314952 0.478701 0.32072  -0.307490416667
 N1 0.814956 0.478703 0.32072  -0.307490416667
 N2 0.369953 0.487889 0.0547  -0.369080416667
 N2 0.869956 0.48789 0.0547  -0.369080416667
 N1 0.481674 0.841758 0.52079  -0.307490416667
 N1 0.981676 0.84176 0.52080  -0.307490416667
 N2 0.036636 0.566809 0.51211  -0.369080416667
 N2 0.536638 0.566807 0.51211  -0.369080416667
 O1 0.06141 0.968726 0.48723  -0.57963375
 O1 0.561413 0.968726 0.4872  -0.57963375
 O1 0.110736 0.086804 0.50272  -0.57963375
 O1 0.610739 0.086804 0.50272  -0.57963375
 O1 0.228031 0.518476 0.03124  -0.57963375
 O1 0.728034 0.518477 0.03124  -0.57963375
 O1 0.277382 0.415946 0.91309  -0.57963375
 O1 0.777385 0.415947 0.91309  -0.57963375
 O1 0.394698 0.512654 0.48142  -0.57963375
 O1 0.894701 0.512656 0.48142  -0.57963375
 O1 0.444032 0.497618 0.58422  -0.57963375
 O1 0.944035 0.49762 0.58422  -0.57963375
 O1 0.311407 0.031243 0.51278  -0.57963375
 O1 0.81141 0.031242 0.51278  -0.57963375
 O1 0.360739 0.91316 0.49726  -0.57963375
 O1 0.860742 0.913159 0.49726  -0.57963375
 O1 0.478026 0.481589 0.96883  -0.57963375
 O1 0.97803 0.48159 0.96883  -0.57963375
 O1 0.027406 0.58413 0.08698  -0.57963375
 O1 0.527409 0.58413 0.08698  -0.57963375
 O1 0.144703 0.487275 0.51861  -0.57963375
 O1 0.644706 0.487276 0.51861  -0.57963375
 O1 0.194013 0.502279 0.41579  -0.57963375
 O1 0.694016 0.50228 0.41579  -0.57963375
