#======================================================================

# CRYSTAL DATA

#----------------------------------------------------------------------

data_VESTA_phase_1


_pd_phase_name                         MOF
_cell_length_a                         14.13100
_cell_length_b                         14.13000
_cell_length_c                         14.13300
_cell_angle_alpha                      104.81100
_cell_angle_beta                       104.76000
_cell_angle_gamma                      104.83300
_symmetry_space_group_name_H-M         "P 1"
_symmetry_Int_Tables_number            1

loop_
_symmetry_equiv_pos_as_xyz
   "x, y, z"

loop_
   _atom_site_label
   _atom_site_fract_x
   _atom_site_fract_y
   _atom_site_fract_z
 _atom_site_charge
 Ag1 0.787042 0.787003 0.52107  0.523352956989
 Ag1 0.521253 0.78706 0.78711  0.523352956989
 Ag1 0.787213 0.521542 0.78723  0.523352956989
 Ag1 0.212969 0.212972 0.47895  0.523352956989
 Ag1 0.212798 0.478432 0.21279  0.523352956989
 Ag1 0.478757 0.212914 0.21291  0.523352956989
 Ag2 0.999991 0.275383 0.72466  0.518502956989
 Ag2 0.724769 1.3e-05 0.27521  0.518502956989
 Ag2 0.275443 0.724526 1.4e-0  0.518502956989
 Ag2 2e-05 0.72459 0.27536  0.518502956989
 Ag2 0.275235 0.999992 0.72481  0.518502956989
 Ag2 0.724559 0.275443 0.99998  0.518502956989
 H1 0.530658 0.637872 0.29260  0.158772956989
 H2 0.821479 0.106485 0.57437  0.334362956989
 H2 0.763608 0.971011 0.50759  0.334362956989
 H2 0.809485 0.601982 0.52188  0.334362956989
 H2 0.175378 0.254198 0.74485  0.334362956989
 H1 0.29271 0.530957 0.63802  0.158772956989
 H2 0.574378 0.821255 0.10644  0.334362956989
 H2 0.507676 0.763369 0.97109  0.334362956989
 H2 0.521823 0.809249 0.6019  0.334362956989
 H2 0.744769 0.175359 0.25408  0.334362956989
 H1 0.638041 0.292442 0.53101  0.158772956989
 H2 0.106504 0.574397 0.82140  0.334362956989
 H2 0.971074 0.507773 0.76353  0.334362956989
 H2 0.602088 0.521969 0.80956  0.334362956989
 H2 0.254127 0.744492 0.17527  0.334362956989
 H1 0.362101 0.469135 0.70736  0.158772956989
 H2 0.893539 0.178656 0.42563  0.334362956989
 H2 0.028933 0.236541 0.4924  0.334362956989
 H2 0.398079 0.190736 0.4782  0.334362956989
 H2 0.745861 0.824583 0.25515  0.334362956989
 H1 0.468894 0.707444 0.361  0.158772956989
 H2 0.178727 0.4256 0.89355  0.334362956989
 H2 0.236596 0.492209 0.02892  0.334362956989
 H2 0.19049 0.478018 0.39794  0.334362956989
 H2 0.824726 0.255474 0.74593  0.334362956989
 H1 0.707464 0.362092 0.4693  0.158772956989
 H2 0.425628 0.893487 0.17850  0.334362956989
 H2 0.492344 0.028974 0.23637  0.334362956989
 H2 0.478092 0.397964 0.19049  0.334362956989
 H2 0.255276 0.745792 0.8247  0.334362956989
 H1 0.469355 0.362109 0.7074  0.158772956989
 H2 0.178531 0.89349 0.42565  0.334362956989
 H2 0.236401 0.028964 0.49243  0.334362956989
 H2 0.190528 0.397995 0.47814  0.334362956989
 H2 0.824633 0.745776 0.25517  0.334362956989
 H1 0.707302 0.46901 0.36200  0.158772956989
 H2 0.425632 0.17872 0.89358  0.334362956989
 H2 0.492335 0.236607 0.02893  0.334362956989
 H2 0.478189 0.190727 0.39807  0.334362956989
 H2 0.255245 0.824616 0.7459  0.334362956989
 H1 0.361973 0.707547 0.46900  0.158772956989
 H2 0.893507 0.425578 0.17862  0.334362956989
 H2 0.028937 0.492203 0.23649  0.334362956989
 H2 0.397924 0.478006 0.19046  0.334362956989
 H2 0.745884 0.255484 0.82475  0.334362956989
 H1 0.637918 0.530841 0.29267  0.158772956989
 H2 0.106472 0.821318 0.57439  0.334362956989
 H2 0.971077 0.763433 0.50760  0.334362956989
 H2 0.601933 0.80924 0.52180  0.334362956989
 H2 0.254149 0.175391 0.74487  0.334362956989
 H1 0.531111 0.292529 0.63812  0.158772956989
 H2 0.821285 0.574374 0.1064  0.334362956989
 H2 0.763416 0.507765 0.97110  0.334362956989
 H2 0.809523 0.521959 0.6020  0.334362956989
 H2 0.175285 0.744504 0.25409  0.334362956989
 H1 0.29256 0.637884 0.53066  0.158772956989
 H2 0.574384 0.106488 0.82152  0.334362956989
 H2 0.507667 0.971001 0.76365  0.334362956989
 H2 0.521919 0.602011 0.80953  0.334362956989
 H2 0.744737 0.254183 0.1753  0.334362956989
 C1 0.919469 0.023306 0.59460  0.751967956989
 C2 0.591367 0.801982 0.32578  0.793599623656
 C1 0.594641 0.919332 0.02330  0.751967956989
 C2 0.325916 0.591336 0.802  0.793599623656
 C1 0.023322 0.594649 0.91945  0.751967956989
 C2 0.802159 0.325878 0.59140  0.793599623656
 C1 0.97669 0.080603 0.40540  0.751967956989
 C2 0.19796 0.408673 0.67416  0.793599623656
 C1 0.080641 0.405336 0.97671  0.751967956989
 C2 0.408594 0.674049 0.1978  0.793599623656
 C1 0.405381 0.976673 0.08052  0.751967956989
 C2 0.674223 0.197975 0.40864  0.793599623656
 C1 0.080541 0.976668 0.40542  0.751967956989
 C2 0.408649 0.197991 0.67424  0.793599623656
 C1 0.405371 0.080644 0.97672  0.751967956989
 C2 0.674092 0.408632 0.19793  0.793599623656
 C1 0.97669 0.405326 0.08057  0.751967956989
 C2 0.197853 0.674099 0.40862  0.793599623656
 C1 0.023321 0.919371 0.59462  0.751967956989
 C2 0.80205 0.591308 0.32586  0.793599623656
 C1 0.91937 0.59464 0.02331  0.751967956989
 C2 0.591412 0.325923 0.8021  0.793599623656
 C1 0.594631 0.023302 0.91950  0.751967956989
 C2 0.325789 0.802001 0.59138  0.793599623656
 C1 0.097064 0.09707 0.67923  0.751967956989
 C1 0.679158 0.097053 0.09703  0.751967956989
 C1 0.097031 0.678989 0.0970  0.751967956989
 C1 0.902946 0.902904 0.32079  0.751967956989
 C1 0.90298 0.320987 0.90  0.751967956989
 C1 0.320855 0.902922 0.90299  0.751967956989
 C3 0.49987 0.702379 0.29749  -0.565912043011
 C3 0.297668 0.500018 0.70242  -0.565912043011
 C3 0.702509 0.297554 0.5001  -0.565912043011
 C3 0.500139 0.2976 0.70253  -0.565912043011
 C3 0.702348 0.499954 0.29760  -0.565912043011
 C3 0.297506 0.702425 0.49990  -0.565912043011
 C1 0.715558 0.611765 0.61179  0.751967956989
 C1 0.611727 0.715388 0.61172  0.751967956989
 C1 0.611811 0.611781 0.71558  0.751967956989
 C1 0.388285 0.284588 0.38830  0.751967956989
 C1 0.284455 0.388211 0.38823  0.751967956989
 C1 0.388201 0.388195 0.28444  0.751967956989
 N1 0.825688 0.033177 0.56356  -0.685769543011
 N2 0.003417 0.110445 0.65223  -0.678739543011
 N1 0.563614 0.825494 0.03317  -0.685769543011
 N2 0.652211 0.003345 0.110  -0.678739543011
 N1 0.033215 0.563692 0.82564  -0.685769543011
 N2 0.110433 0.652072 0.00336  -0.678739543011
 N1 0.966824 0.174424 0.43645  -0.685769543011
 N2 0.889585 0.996596 0.34776  -0.678739543011
 N1 0.174479 0.4363 0.96682  -0.685769543011
 N2 0.99668 0.347896 0.88961  -0.678739543011
 N1 0.436395 0.966795 0.174  -0.685769543011
 N2 0.347841 0.889535 0.99662  -0.678739543011
 N1 0.174323 0.966797 0.43646  -0.685769543011
 N2 0.996593 0.889529 0.34779  -0.678739543011
 N1 0.436397 0.174482 0.96685  -0.685769543011
 N2 0.347801 0.99663 0.8896  -0.678739543011
 N1 0.966797 0.436283 0.17438  -0.685769543011
 N2 0.889579 0.347903 0.99666  -0.678739543011
 N1 0.033186 0.82555 0.56357  -0.685769543011
 N2 0.110425 0.003378 0.65226  -0.678739543011
 N1 0.825532 0.563674 0.033  -0.685769543011
 N2 0.003331 0.652079 0.11041  -0.678739543011
 N1 0.563616 0.03318 0.8257  -0.685769543011
 N2 0.652171 0.11044 0.00340  -0.678739543011
 N2 0.925822 0.925737 0.56666  -0.678739543011
 N2 0.682461 0.682385 0.57529  -0.678739543011
 N1 0.181755 0.181786 0.73618  -0.685769543011
 N2 0.566744 0.925717 0.92585  -0.678739543011
 N2 0.575334 0.682417 0.682  -0.678739543011
 N1 0.736063 0.18177 0.18170  -0.685769543011
 N2 0.925775 0.566833 0.92583  -0.678739543011
 N2 0.682578 0.575416 0.68258  -0.678739543011
 N1 0.181726 0.73577 0.18170  -0.685769543011
 N2 0.074188 0.074237 0.43336  -0.678739543011
 N2 0.317551 0.317591 0.42473  -0.678739543011
 N1 0.818255 0.818188 0.26384  -0.685769543011
 N2 0.074236 0.433142 0.07419  -0.678739543011
 N2 0.317433 0.42456 0.31744  -0.678739543011
 N1 0.818285 0.264206 0.81832  -0.685769543011
 N2 0.433267 0.074258 0.07417  -0.678739543011
 N2 0.424678 0.317558 0.31752  -0.678739543011
 N1 0.263951 0.818205 0.81832  -0.685769543011
 N1 0.783981 0.576887 0.57690  -0.685769543011
 N1 0.576767 0.783704 0.57676  -0.685769543011
 N1 0.576918 0.576901 0.78401  -0.685769543011
 N1 0.423246 0.216272 0.42326  -0.685769543011
 N1 0.216032 0.42309 0.42312  -0.685769543011
 N1 0.423094 0.423074 0.21601  -0.685769543011
 O1 0.643137 0.851475 0.42227  -0.675827043011
 O2 0.613556 0.826303 0.25138  -0.626887043011
 O1 0.422419 0.643051 0.85171  -0.675827043011
 O2 0.251497 0.613515 0.82639  -0.626887043011
 O1 0.85168 0.422419 0.64317  -0.675827043011
 O2 0.82643 0.251446 0.61354  -0.626887043011
 O1 0.148382 0.356925 0.57768  -0.675827043011
 O2 0.173671 0.386456 0.74857  -0.626887043011
 O1 0.356901 0.577504 0.14825  -0.675827043011
 O2 0.386489 0.748484 0.17355  -0.626887043011
 O1 0.577714 0.148512 0.35683  -0.675827043011
 O2 0.748634 0.173683 0.3864  -0.626887043011
 O1 0.356871 0.148503 0.57775  -0.675827043011
 O2 0.386453 0.173671 0.74864  -0.626887043011
 O1 0.577589 0.356927 0.14831  -0.675827043011
 O2 0.748514 0.386461 0.1736  -0.626887043011
 O1 0.148332 0.577558 0.35685  -0.675827043011
 O2 0.173579 0.74853 0.38648  -0.626887043011
 O1 0.851632 0.643048 0.42234  -0.675827043011
 O2 0.826339 0.613516 0.25145  -0.626887043011
 O1 0.643112 0.422467 0.85176  -0.675827043011
 O2 0.613523 0.25149 0.82647  -0.626887043011
 O1 0.422298 0.851463 0.64319  -0.675827043011
 O2 0.251377 0.82629 0.61358  -0.626887043011
