#======================================================================

# CRYSTAL DATA

#----------------------------------------------------------------------

data_VESTA_phase_1


_pd_phase_name                         MOF
_cell_length_a                         13.71600
_cell_length_b                         14.21300
_cell_length_c                         15.98400
_cell_angle_alpha                      90.00000
_cell_angle_beta                       90.00200
_cell_angle_gamma                      90.00300
_symmetry_space_group_name_H-M         "P 1"
_symmetry_Int_Tables_number            1

loop_
_symmetry_equiv_pos_as_xyz
   "x, y, z"

loop_
   _atom_site_label
   _atom_site_fract_x
   _atom_site_fract_y
   _atom_site_fract_z
 _atom_site_charge
 V1 0.469077 0.763975 0.99910  1.89342027778
 V1 0.969085 0.763976 0.99910  1.89342027778
 V1 0.280894 0.236046 0.49910  1.89342027778
 V1 0.780902 0.236045 0.49910  1.89342027778
 V1 0.030747 0.263626 0.49869  1.89342027778
 V1 0.530755 0.263626 0.49869  1.89342027778
 V1 0.219221 0.736404 0.99869  1.89342027778
 V1 0.719229 0.736405 0.99869  1.89342027778
 H1 0.275095 0.926857 0.80599  0.111447777778
 H1 0.775096 0.926809 0.80595  0.111447777778
 H1 0.285238 0.043414 0.68817  0.111447777778
 H1 0.785238 0.043366 0.68813  0.111447777778
 H1 0.474739 0.081716 0.698  0.111447777778
 H1 0.974742 0.081689 0.6983  0.111447777778
 H1 0.464564 0.964952 0.81604  0.111447777778
 H1 0.964568 0.964926 0.81602  0.111447777778
 H1 0.474823 0.073003 0.30607  0.111447777778
 H1 0.974837 0.073034 0.30605  0.111447777778
 H1 0.464716 0.956443 0.18825  0.111447777778
 H1 0.96473 0.956474 0.18822  0.111447777778
 H1 0.275274 0.918521 0.19826  0.111447777778
 H1 0.775289 0.918567 0.19822  0.111447777778
 H1 0.285412 0.035287 0.31590  0.111447777778
 H1 0.785427 0.035333 0.31587  0.111447777778
 H1 0.2247 0.42594 0.69252  0.111447777778
 H1 0.724708 0.425933 0.69252  0.111447777778
 H1 0.214414 0.542742 0.81011  0.111447777778
 H1 0.714423 0.542736 0.81012  0.111447777778
 H1 0.024927 0.581061 0.80009  0.111447777778
 H1 0.524935 0.581064 0.80008  0.111447777778
 H1 0.035167 0.464469 0.68231  0.111447777778
 H1 0.535176 0.464473 0.68230  0.111447777778
 H1 0.025295 0.573869 0.19236  0.111447777778
 H1 0.525303 0.573867 0.19236  0.111447777778
 H1 0.035566 0.457061 0.30996  0.111447777778
 H1 0.535573 0.457059 0.30996  0.111447777778
 H1 0.224978 0.419214 0.30026  0.111447777778
 H1 0.724985 0.419228 0.30027  0.111447777778
 H1 0.214753 0.53581 0.18248  0.111447777778
 H1 0.714759 0.535824 0.18249  0.111447777778
 C1 0.113255 0.868982 0.88639  0.729415277778
 C1 0.613262 0.868978 0.88639  0.729415277778
 C2 0.119264 0.939075 0.81750  -0.125649722222
 C2 0.619271 0.939065 0.817  -0.125649722222
 C3 0.210002 0.96134 0.78192  -0.0541909722222
 C3 0.710005 0.961308 0.78189  -0.0541909722222
 C3 0.215564 0.025882 0.71683  -0.0541909722222
 C3 0.715567 0.02585 0.71681  -0.0541909722222
 C2 0.130519 0.069187 0.68662  -0.125649722222
 C2 0.630526 0.069178 0.68661  -0.125649722222
 C3 0.039836 0.047271 0.72249  -0.0541909722222
 C3 0.539846 0.047281 0.72250  -0.0541909722222
 C3 0.034258 0.982638 0.78750  -0.0541909722222
 C3 0.534268 0.982648 0.78751  -0.0541909722222
 C1 0.136283 0.13757 0.6163  0.729415277778
 C1 0.63629 0.137565 0.61638  0.729415277778
 C1 0.13668 0.131058 0.38637  0.729415277778
 C1 0.636688 0.131061 0.38637  0.729415277778
 C2 0.130676 0.060971 0.31748  -0.125649722222
 C2 0.630685 0.060977 0.31747  -0.125649722222
 C3 0.039933 0.03862 0.28194  -0.0541909722222
 C3 0.539938 0.038607 0.28195  -0.0541909722222
 C3 0.03439 0.974083 0.21685  -0.0541909722222
 C3 0.534395 0.974069 0.21686  -0.0541909722222
 C2 0.119455 0.930859 0.18659  -0.125649722222
 C2 0.619464 0.930866 0.1865  -0.125649722222
 C3 0.210146 0.952869 0.22241  -0.0541909722222
 C3 0.710158 0.952898 0.2223  -0.0541909722222
 C3 0.215703 0.017497 0.28742  -0.0541909722222
 C3 0.715715 0.017526 0.28740  -0.0541909722222
 C1 0.113699 0.862462 0.11637  0.729415277778
 C1 0.613707 0.862465 0.11637  0.729415277778
 C1 0.38643 0.368562 0.6116  0.729415277778
 C1 0.886438 0.36856 0.61169  0.729415277778
 C2 0.380495 0.438431 0.68080  -0.125649722222
 C2 0.880503 0.438427 0.68081  -0.125649722222
 C3 0.289767 0.460559 0.716  -0.0541909722222
 C3 0.789775 0.460553 0.71650  -0.0541909722222
 C3 0.284128 0.52521 0.78152  -0.0541909722222
 C3 0.784137 0.525204 0.78152  -0.0541909722222
 C2 0.369118 0.568659 0.81171  -0.125649722222
 C2 0.869127 0.568655 0.81171  -0.125649722222
 C3 0.459833 0.546643 0.7759  -0.0541909722222
 C3 0.959841 0.546639 0.77595  -0.0541909722222
 C3 0.46545 0.482076 0.71084  -0.0541909722222
 C3 0.965458 0.482072 0.71085  -0.0541909722222
 C1 0.36322 0.637372 0.88171  0.729415277778
 C1 0.863228 0.637369 0.88171  0.729415277778
 C1 0.363544 0.631469 0.11168  0.729415277778
 C1 0.863552 0.631473 0.1116  0.729415277778
 C2 0.369474 0.56161 0.18081  -0.125649722222
 C2 0.869482 0.561617 0.1808  -0.125649722222
 C3 0.460216 0.539355 0.21642  -0.0541909722222
 C3 0.960224 0.53936 0.21642  -0.0541909722222
 C3 0.465845 0.474697 0.28143  -0.0541909722222
 C3 0.965854 0.474701 0.28144  -0.0541909722222
 C2 0.38083 0.431381 0.31172  -0.125649722222
 C2 0.880839 0.431388 0.31172  -0.125649722222
 C3 0.290099 0.453528 0.27604  -0.0541909722222
 C3 0.790107 0.453539 0.27605  -0.0541909722222
 C3 0.284491 0.518102 0.21095  -0.0541909722222
 C3 0.784499 0.518114 0.21096  -0.0541909722222
 C1 0.38673 0.362658 0.38171  0.729415277778
 C1 0.886739 0.362661 0.38171  0.729415277778
 O1 0.358327 0.806067 0.00013  -0.760059722222
 O1 0.858335 0.806067 0.00013  -0.760059722222
 O2 0.028499 0.847528 0.91339  -0.642479722222
 O2 0.528507 0.847529 0.91339  -0.642479722222
 O2 0.220732 0.156487 0.58723  -0.642479722222
 O2 0.72074 0.156485 0.58723  -0.642479722222
 O2 0.193713 0.834896 0.91336  -0.642479722222
 O2 0.693721 0.834893 0.91336  -0.642479722222
 O2 0.055865 0.172516 0.59013  -0.642479722222
 O2 0.555873 0.172516 0.5901  -0.642479722222
 O1 0.391647 0.19395 0.50014  -0.760059722222
 O1 0.891656 0.193951 0.5001  -0.760059722222
 O2 0.221439 0.152498 0.41338  -0.642479722222
 O2 0.721448 0.1525 0.41338  -0.642479722222
 O2 0.029249 0.843542 0.08722  -0.642479722222
 O2 0.529257 0.843542 0.08722  -0.642479722222
 O2 0.05622 0.165141 0.41334  -0.642479722222
 O2 0.556228 0.16514 0.41334  -0.642479722222
 O2 0.194114 0.827507 0.09013  -0.642479722222
 O2 0.694123 0.827509 0.09013  -0.642479722222
 O1 0.141682 0.305158 0.49722  -0.760059722222
 O1 0.64169 0.305159 0.4972  -0.760059722222
 O2 0.470971 0.348845 0.58313  -0.642479722222
 O2 0.970979 0.348844 0.58313  -0.642479722222
 O2 0.27856 0.658155 0.90931  -0.642479722222
 O2 0.778569 0.658154 0.90931  -0.642479722222
 O2 0.306082 0.332916 0.58605  -0.642479722222
 O2 0.80609 0.332915 0.58605  -0.642479722222
 O2 0.443673 0.670842 0.9093  -0.642479722222
 O2 0.943681 0.670842 0.9093  -0.642479722222
 O1 0.108291 0.694869 0.99723  -0.760059722222
 O1 0.6083 0.694868 0.99723  -0.760059722222
 O2 0.279009 0.651186 0.08312  -0.642479722222
 O2 0.779017 0.651188 0.08312  -0.642479722222
 O2 0.471391 0.341872 0.4093  -0.642479722222
 O2 0.9714 0.341872 0.4093  -0.642479722222
 O2 0.443894 0.667102 0.08604  -0.642479722222
 O2 0.943903 0.667103 0.0860  -0.642479722222
 O2 0.306272 0.329191 0.40930  -0.642479722222
 O2 0.806281 0.329193 0.40930  -0.642479722222
