#======================================================================

# CRYSTAL DATA

#----------------------------------------------------------------------

data_VESTA_phase_1


_pd_phase_name                         MOF
_cell_length_a                         18.41900
_cell_length_b                         18.42500
_cell_length_c                         18.42500
_cell_angle_alpha                      60.21900
_cell_angle_beta                       60.19000
_cell_angle_gamma                      60.19200
_symmetry_space_group_name_H-M         "P 1"
_symmetry_Int_Tables_number            1

loop_
_symmetry_equiv_pos_as_xyz
   "x, y, z"

loop_
   _atom_site_label
   _atom_site_fract_x
   _atom_site_fract_y
   _atom_site_fract_z
 _atom_site_charge
 Zn1 0.206718 0.380367 0.20669  1.11967811321
 Zn1 0.380464 0.206745 0.20674  1.11967811321
 Zn1 0.206151 0.206353 0.20634  1.11967811321
 Zn1 0.206719 0.206701 0.38036  1.11967811321
 Zn1 0.619525 0.793252 0.79324  1.11967811321
 Zn1 0.793271 0.619629 0.79329  1.11967811321
 Zn1 0.793838 0.793643 0.79364  1.11967811321
 Zn1 0.79327 0.793295 0.61962  1.11967811321
 H1 0.048594 0.567812 0.04861  0.114538113208
 H1 0.568213 0.048178 0.33571  0.114538113208
 H1 0.047545 0.335747 0.04759  0.114538113208
 H1 0.335612 0.048281 0.56805  0.114538113208
 H1 0.047547 0.047596 0.33573  0.114538113208
 H1 0.568212 0.335727 0.04817  0.114538113208
 H1 0.048595 0.048607 0.5678  0.114538113208
 H1 0.335614 0.568052 0.04829  0.114538113208
 H1 0.048225 0.335724 0.56804  0.114538113208
 H1 0.567913 0.048551 0.04855  0.114538113208
 H1 0.04823 0.568045 0.33571  0.114538113208
 H1 0.335643 0.047648 0.04764  0.114538113208
 H1 0.432075 0.951444 0.95144  0.114538113208
 H1 0.951757 0.431951 0.66427  0.114538113208
 H1 0.664345 0.952347 0.95234  0.114538113208
 H1 0.951762 0.664272 0.43194  0.114538113208
 H1 0.952441 0.952402 0.66425  0.114538113208
 H1 0.664374 0.431945 0.95169  0.114538113208
 H1 0.951393 0.95139 0.43218  0.114538113208
 H1 0.431777 0.66427 0.95181  0.114538113208
 H1 0.664376 0.951716 0.43193  0.114538113208
 H1 0.951392 0.432184 0.9513  0.114538113208
 H1 0.431775 0.951819 0.66427  0.114538113208
 H1 0.952441 0.664249 0.95240  0.114538113208
 C1 0.02692 0.538871 0.02693  -0.0596418867925
 C1 0.539109 0.02669 0.40768  -0.0596418867925
 C1 0.026333 0.407701 0.02636  -0.0596418867925
 C1 0.407624 0.026745 0.53902  -0.0596418867925
 C1 0.026332 0.02637 0.40769  -0.0596418867925
 C1 0.53911 0.40769 0.02670  -0.0596418867925
 C1 0.026918 0.026932 0.53886  -0.0596418867925
 C1 0.407626 0.539024 0.02676  -0.0596418867925
 C1 0.026727 0.407687 0.53902  -0.0596418867925
 C1 0.538923 0.026898 0.02690  -0.0596418867925
 C1 0.02673 0.539021 0.40768  -0.0596418867925
 C1 0.407644 0.026394 0.02639  -0.0596418867925
 C1 0.461065 0.973097 0.97309  -0.0596418867925
 C1 0.973259 0.460975 0.59230  -0.0596418867925
 C1 0.592345 0.973601 0.97359  -0.0596418867925
 C1 0.973262 0.592309 0.46097  -0.0596418867925
 C1 0.973656 0.973628 0.59229  -0.0596418867925
 C1 0.592362 0.460973 0.97323  -0.0596418867925
 C1 0.97307 0.973065 0.46112  -0.0596418867925
 C1 0.460878 0.592307 0.97329  -0.0596418867925
 C1 0.592364 0.973244 0.4609  -0.0596418867925
 C1 0.973068 0.461125 0.97305  -0.0596418867925
 C1 0.460879 0.973299 0.59230  -0.0596418867925
 C1 0.973655 0.592295 0.97362  -0.0596418867925
 C2 0.110908 0.388832 0.11099  0.712598113208
 C3 0.053608 0.446226 0.0536  -0.124311886792
 C2 0.389107 0.111269 0.38907  0.712598113208
 C3 0.446402 0.053813 0.44637  -0.124311886792
 C2 0.110908 0.110996 0.38882  0.712598113208
 C3 0.053604 0.053654 0.44622  -0.124311886792
 C2 0.389108 0.389074 0.11127  0.712598113208
 C3 0.446403 0.44638 0.05378  -0.124311886792
 C2 0.111253 0.389065 0.38906  0.712598113208
 C3 0.053778 0.44638 0.44637  -0.124311886792
 C2 0.388806 0.110994 0.11099  0.712598113208
 C3 0.446217 0.053652 0.05364  -0.124311886792
 C2 0.611182 0.889003 0.88899  0.712598113208
 C3 0.553771 0.946341 0.94634  -0.124311886792
 C2 0.888737 0.610931 0.6109  0.712598113208
 C3 0.946207 0.553616 0.55361  -0.124311886792
 C2 0.889081 0.889002 0.61116  0.712598113208
 C3 0.946384 0.946343 0.55377  -0.124311886792
 C2 0.610881 0.610923 0.88871  0.712598113208
 C3 0.553585 0.553617 0.94620  -0.124311886792
 C2 0.610881 0.888719 0.6109  0.712598113208
 C3 0.553586 0.9462 0.55361  -0.124311886792
 C2 0.889081 0.611165 0.88899  0.712598113208
 C3 0.946375 0.55377 0.94634  -0.124311886792
 O1 0.249971 0.24997 0.24996  -1.27648188679
 O1 0.750017 0.750027 0.75002  -1.27648188679
 O2 0.133257 0.428402 0.13320  -0.615891886792
 O2 0.428712 0.133549 0.30532  -0.615891886792
 O2 0.13273 0.305067 0.13299  -0.615891886792
 O2 0.305304 0.133391 0.42863  -0.615891886792
 O2 0.132724 0.133005 0.3050  -0.615891886792
 O2 0.428711 0.305325 0.1335  -0.615891886792
 O2 0.133261 0.133206 0.42839  -0.615891886792
 O2 0.305305 0.428638 0.13339  -0.615891886792
 O2 0.133438 0.305322 0.4286  -0.615891886792
 O2 0.42842 0.133257 0.13325  -0.615891886792
 O2 0.133439 0.428612 0.30531  -0.615891886792
 O2 0.304991 0.132937 0.13293  -0.615891886792
 O2 0.571568 0.866739 0.86673  -0.615891886792
 O2 0.866549 0.571384 0.69467  -0.615891886792
 O2 0.694998 0.867058 0.86706  -0.615891886792
 O2 0.866549 0.694674 0.57138  -0.615891886792
 O2 0.867263 0.866992 0.69493  -0.615891886792
 O2 0.694683 0.571359 0.866  -0.615891886792
 O2 0.866728 0.86679 0.57159  -0.615891886792
 O2 0.571277 0.694672 0.86645  -0.615891886792
 O2 0.694685 0.866608 0.57135  -0.615891886792
 O2 0.866729 0.571594 0.86678  -0.615891886792
 O2 0.571277 0.866448 0.69467  -0.615891886792
 O2 0.867258 0.69493 0.86699  -0.615891886792
