#======================================================================

# CRYSTAL DATA

#----------------------------------------------------------------------

data_VESTA_phase_1


_pd_phase_name                         MOF
_cell_length_a                         14.03900
_cell_length_b                         14.06800
_cell_length_c                         14.79100
_cell_angle_alpha                      90.01400
_cell_angle_beta                       89.98100
_cell_angle_gamma                      89.98600
_symmetry_space_group_name_H-M         "P 1"
_symmetry_Int_Tables_number            1

loop_
_symmetry_equiv_pos_as_xyz
   "x, y, z"

loop_
   _atom_site_label
   _atom_site_fract_x
   _atom_site_fract_y
   _atom_site_fract_z
 _atom_site_charge
 Cu1 0.499985 0.499998 2e-0  0.944190365854
 Cu1 2.7e-05 0.999964 1.2e-0  0.944190365854
 Cu1 0.999989 0.499981 0.50002  0.944190365854
 Cu1 0.499986 3.1e-05 0.50004  0.944190365854
 Cu2 0.83403 0.666043 0.20736  0.713202865854
 Cu2 0.665936 0.833896 0.20736  0.713202865854
 Cu2 0.834042 0.833857 0.70744  0.713202865854
 Cu2 0.665924 0.666173 0.70745  0.713202865854
 Cu2 0.165941 0.166129 0.29259  0.713202865854
 Cu2 0.334051 0.333822 0.29258  0.713202865854
 Cu2 0.165978 0.333881 0.79265  0.713202865854
 Cu2 0.333997 0.166156 0.7926  0.713202865854
 H1 0.796481 0.478142 0.1230  0.157048699187
 H1 0.686382 0.41661 0.10916  0.157048699187
 H1 0.742791 0.466435 0.01332  0.157048699187
 H1 0.703249 0.021688 0.12284  0.157048699187
 H1 0.813378 0.083255 0.10923  0.157048699187
 H1 0.757244 0.033491 0.0132  0.157048699187
 H1 0.022933 0.795433 0.62418  0.157048699187
 H1 0.084003 0.685337 0.60938  0.157048699187
 H1 0.034273 0.74265 0.51401  0.157048699187
 H1 0.477194 0.704568 0.62416  0.157048699187
 H1 0.416057 0.814647 0.60955  0.157048699187
 H1 0.465825 0.757462 0.51409  0.157048699187
 H1 0.203334 0.978044 0.37684  0.157048699187
 H1 0.313461 0.916539 0.3908  0.157048699187
 H1 0.256937 0.96642 0.48662  0.157048699187
 H1 0.296513 0.521878 0.37668  0.157048699187
 H1 0.186406 0.5834 0.3907  0.157048699187
 H1 0.242961 0.533564 0.48651  0.157048699187
 H1 0.977085 0.295884 0.87651  0.157048699187
 H1 0.915887 0.185758 0.89049  0.157048699187
 H1 0.965372 0.242441 0.98632  0.157048699187
 H1 0.522831 0.204411 0.87618  0.157048699187
 H1 0.584032 0.314486 0.89043  0.157048699187
 H1 0.534394 0.257634 0.98611  0.157048699187
 H1 0.203187 0.521735 0.87705  0.157048699187
 H1 0.313209 0.583409 0.89087  0.157048699187
 H1 0.25692 0.533526 0.98674  0.157048699187
 H1 0.296686 0.978435 0.8771  0.157048699187
 H1 0.186615 0.916802 0.89082  0.157048699187
 H1 0.242791 0.966661 0.98676  0.157048699187
 H1 0.977122 0.204432 0.37602  0.157048699187
 H1 0.915989 0.314549 0.39040  0.157048699187
 H1 0.965544 0.257541 0.48602  0.157048699187
 H1 0.522738 0.295503 0.3759  0.157048699187
 H1 0.583902 0.185397 0.39024  0.157048699187
 H1 0.53433 0.242407 0.48589  0.157048699187
 H1 0.796653 0.021977 0.62322  0.157048699187
 H1 0.68654 0.083492 0.60917  0.157048699187
 H1 0.743078 0.033546 0.51342  0.157048699187
 H1 0.703451 0.478104 0.62338  0.157048699187
 H1 0.813547 0.416569 0.60925  0.157048699187
 H1 0.756967 0.466426 0.51354  0.157048699187
 H1 0.023002 0.704277 0.12359  0.157048699187
 H1 0.084097 0.814426 0.10938  0.157048699187
 H1 0.034546 0.757548 0.01369  0.157048699187
 H1 0.47699 0.795745 0.12371  0.157048699187
 H1 0.415814 0.685655 0.10941  0.157048699187
 H1 0.465501 0.742531 0.01376  0.157048699187
 C1 0.676405 0.567117 0.10045  0.489890365854
 C2 0.729141 0.477074 0.08574  -0.459207134146
 C3 0.880198 0.542338 0.34331  0.500700365854
 C1 0.823436 0.932783 0.10040  0.489890365854
 C2 0.770685 0.02281 0.08565  -0.459207134146
 C3 0.619801 0.957603 0.34326  0.500700365854
 C1 0.933181 0.676239 0.60085  0.489890365854
 C2 0.02362 0.728537 0.58634  -0.459207134146
 C3 0.958074 0.880063 0.84318  0.500700365854
 C1 0.566902 0.823826 0.60087  0.489890365854
 C2 0.476477 0.771511 0.58643  -0.459207134146
 C3 0.541937 0.61991 0.84329  0.500700365854
 C1 0.323399 0.067015 0.39943  0.489890365854
 C2 0.270635 0.977009 0.41420  -0.459207134146
 C3 0.119645 0.042396 0.15682  0.500700365854
 C1 0.176473 0.432922 0.39942  0.489890365854
 C2 0.229225 0.522928 0.41411  -0.459207134146
 C3 0.380246 0.457659 0.15675  0.500700365854
 C1 0.066708 0.176449 0.89947  0.489890365854
 C2 0.976236 0.228754 0.91393  -0.459207134146
 C3 0.042085 0.380081 0.65678  0.500700365854
 C1 0.433192 0.323778 0.89927  0.489890365854
 C2 0.523641 0.271469 0.91375  -0.459207134146
 C3 0.457943 0.119885 0.65671  0.500700365854
 C1 0.323408 0.432922 0.89959  0.489890365854
 C2 0.270546 0.522889 0.91432  -0.459207134146
 C3 0.119792 0.45762 0.65673  0.500700365854
 C1 0.176485 0.067312 0.89960  0.489890365854
 C2 0.229273 0.977299 0.91433  -0.459207134146
 C3 0.380188 0.042384 0.65675  0.500700365854
 C1 0.066785 0.323732 0.39918  0.489890365854
 C2 0.97634 0.271439 0.41367  -0.459207134146
 C3 0.041832 0.119901 0.15691  0.500700365854
 C1 0.433091 0.176185 0.39915  0.489890365854
 C2 0.523528 0.228492 0.4135  -0.459207134146
 C3 0.458007 0.380134 0.15673  0.500700365854
 C1 0.676592 0.932999 0.60061  0.489890365854
 C2 0.729362 0.023002 0.58584  -0.459207134146
 C3 0.880294 0.957593 0.84322  0.500700365854
 C1 0.823487 0.567054 0.60061  0.489890365854
 C2 0.770728 0.477049 0.58594  -0.459207134146
 C3 0.619707 0.542394 0.8433  0.500700365854
 C1 0.933254 0.823598 0.10057  0.489890365854
 C2 0.023754 0.771349 0.08606  -0.459207134146
 C3 0.957892 0.619888 0.34328  0.500700365854
 C1 0.566638 0.676374 0.10064  0.489890365854
 C2 0.476204 0.728694 0.0861  -0.459207134146
 C3 0.54204 0.880107 0.34330  0.500700365854
 N1 0.71215 0.64289 0.14315  -0.316769634146
 N1 0.787727 0.856972 0.14306  -0.316769634146
 N1 0.857129 0.712044 0.64337  -0.316769634146
 N1 0.642861 0.788032 0.64347  -0.316769634146
 N1 0.287718 0.142902 0.35678  -0.316769634146
 N1 0.212221 0.357031 0.35679  -0.316769634146
 N1 0.142671 0.212183 0.8567  -0.316769634146
 N1 0.357237 0.287998 0.85668  -0.316769634146
 N1 0.287793 0.357064 0.85684  -0.316769634146
 N1 0.212132 0.143126 0.85687  -0.316769634146
 N1 0.142848 0.287928 0.35668  -0.316769634146
 N1 0.357132 0.211969 0.35653  -0.316769634146
 N1 0.712278 0.857098 0.64324  -0.316769634146
 N1 0.787754 0.642943 0.64326  -0.316769634146
 N1 0.857361 0.787747 0.14322  -0.316769634146
 N1 0.64258 0.712172 0.14322  -0.316769634146
 N2 0.585695 0.585935 0.07252  -0.575419634146
 N2 0.914148 0.913997 0.07242  -0.575419634146
 N2 0.914177 0.585808 0.57265  -0.575419634146
 N2 0.585907 0.914252 0.57269  -0.575419634146
 N2 0.414056 0.085794 0.42741  -0.575419634146
 N2 0.085791 0.414154 0.42740  -0.575419634146
 N2 0.085746 0.086058 0.92759  -0.575419634146
 N2 0.414123 0.414206 0.92749  -0.575419634146
 O1 0.882731 0.478235 0.40181  -0.495349634146
 O1 0.816644 0.550009 0.28120  -0.495349634146
 O1 0.617244 0.021748 0.4017  -0.495349634146
 O1 0.683387 0.949917 0.28109  -0.495349634146
 O1 0.022554 0.882706 0.90137  -0.495349634146
 O1 0.950121 0.816532 0.78109  -0.495349634146
 O1 0.477564 0.617217 0.90166  -0.495349634146
 O1 0.549743 0.683434 0.78126  -0.495349634146
 O1 0.117131 0.978283 0.09831  -0.495349634146
 O1 0.183343 0.05012 0.21886  -0.495349634146
 O1 0.382776 0.521795 0.09829  -0.495349634146
 O1 0.316632 0.449921 0.21884  -0.495349634146
 O1 0.977794 0.382724 0.59835  -0.495349634146
 O1 0.049854 0.316558 0.71881  -0.495349634146
 O1 0.522247 0.117315 0.59827  -0.495349634146
 O1 0.450113 0.183381 0.71879  -0.495349634146
 O1 0.117244 0.521725 0.59823  -0.495349634146
 O1 0.183346 0.449956 0.71884  -0.495349634146
 O1 0.382772 0.978243 0.59824  -0.495349634146
 O1 0.316611 0.050038 0.71888  -0.495349634146
 O1 0.977299 0.117237 0.09877  -0.495349634146
 O1 0.049862 0.183466 0.21896  -0.495349634146
 O1 0.522345 0.382828 0.09832  -0.495349634146
 O1 0.450224 0.316578 0.21873  -0.495349634146
 O1 0.8828 0.021697 0.90173  -0.495349634146
 O1 0.816625 0.949869 0.78115  -0.495349634146
 O1 0.61719 0.478306 0.90183  -0.495349634146
 O1 0.683321 0.550075 0.78122  -0.495349634146
 O1 0.022177 0.617253 0.40171  -0.495349634146
 O1 0.950134 0.683397 0.28123  -0.495349634146
 O1 0.477729 0.882663 0.40171  -0.495349634146
 O1 0.549908 0.816598 0.28118  -0.495349634146
