#======================================================================

# CRYSTAL DATA

#----------------------------------------------------------------------

data_VESTA_phase_1


_pd_phase_name                         MOF
_cell_length_a                         18.42500
_cell_length_b                         18.43000
_cell_length_c                         18.43100
_cell_angle_alpha                      60.15100
_cell_angle_beta                       60.16300
_cell_angle_gamma                      60.16100
_symmetry_space_group_name_H-M         "P 1"
_symmetry_Int_Tables_number            1

loop_
_symmetry_equiv_pos_as_xyz
   "x, y, z"

loop_
   _atom_site_label
   _atom_site_fract_x
   _atom_site_fract_y
   _atom_site_fract_z
 _atom_site_charge
 Zn1 0.293347 0.293291 0.11953  1.11753
 Zn1 0.293632 0.293671 0.29364  1.11753
 Zn1 0.119528 0.293348 0.29332  1.11753
 Zn1 0.293358 0.119548 0.29326  1.11753
 Zn1 0.706619 0.706695 0.8804  1.11753
 Zn1 0.706334 0.706315 0.70635  1.11753
 Zn1 0.706609 0.880439 0.70673  1.11753
 Zn1 0.880439 0.706638 0.70666  1.11753
 H1 0.4518 0.451265 0.93200  0.114542916667
 H1 0.451942 0.452546 0.16431  0.114542916667
 H1 0.931842 0.164343 0.45208  0.114542916667
 H1 0.164359 0.931838 0.45155  0.114542916667
 H1 0.451824 0.931868 0.16433  0.114542916667
 H1 0.451802 0.16434 0.93180  0.114542916667
 H1 0.931882 0.451597 0.4515  0.114542916667
 H1 0.164352 0.452194 0.45229  0.114542916667
 H1 0.451948 0.164326 0.45254  0.114542916667
 H1 0.451828 0.931987 0.45124  0.114542916667
 H1 0.931839 0.452115 0.16433  0.114542916667
 H1 0.164364 0.451505 0.93186  0.114542916667
 H1 0.548168 0.54872 0.06799  0.114542916667
 H1 0.548026 0.547438 0.83567  0.114542916667
 H1 0.835607 0.068148 0.54844  0.114542916667
 H1 0.068125 0.835643 0.54791  0.114542916667
 H1 0.068127 0.54787 0.83566  0.114542916667
 H1 0.835602 0.54848 0.06813  0.114542916667
 H1 0.548138 0.068 0.54874  0.114542916667
 H1 0.548017 0.83566 0.54745  0.114542916667
 H1 0.835614 0.547794 0.54770  0.114542916667
 H1 0.068084 0.548391 0.54841  0.114542916667
 H1 0.548148 0.068119 0.83566  0.114542916667
 H1 0.548169 0.835646 0.0681  0.114542916667
 C1 0.473295 0.47299 0.96102  -0.0605075
 C1 0.473378 0.473712 0.09233  -0.0605075
 C1 0.960905 0.092349 0.47346  -0.0605075
 C1 0.092355 0.960911 0.47316  -0.0605075
 C1 0.473307 0.960929 0.09234  -0.0605075
 C1 0.473297 0.092347 0.960  -0.0605075
 C1 0.96096 0.473169 0.47317  -0.0605075
 C1 0.09235 0.47351 0.47357  -0.0605075
 C1 0.473385 0.092339 0.47370  -0.0605075
 C1 0.473306 0.961016 0.47298  -0.0605075
 C1 0.9609 0.473478 0.09234  -0.0605075
 C1 0.09236 0.473139 0.96092  -0.0605075
 C1 0.526672 0.526996 0.03897  -0.0605075
 C1 0.526589 0.526274 0.90766  -0.0605075
 C1 0.907611 0.039075 0.52683  -0.0605075
 C1 0.039062 0.907637 0.52653  -0.0605075
 C1 0.039066 0.526508 0.90765  -0.0605075
 C1 0.907606 0.526848 0.03907  -0.0605075
 C1 0.526662 0.038971 0.52701  -0.0605075
 C1 0.526584 0.907648 0.52628  -0.0605075
 C1 0.907616 0.526475 0.5264  -0.0605075
 C1 0.039007 0.526815 0.52682  -0.0605075
 C1 0.526657 0.039057 0.90765  -0.0605075
 C1 0.526667 0.907639 0.03909  -0.0605075
 C2 0.389001 0.389047 0.11107  0.71182
 C3 0.446342 0.446365 0.05370  -0.123405833333
 C2 0.110943 0.110907 0.38879  0.71182
 C3 0.053625 0.053604 0.4462  -0.123405833333
 C2 0.38883 0.110933 0.11087  0.71182
 C3 0.446283 0.053624 0.05358  -0.123405833333
 C2 0.111053 0.38902 0.38905  0.71182
 C3 0.053696 0.446338 0.44638  -0.123405833333
 C2 0.389042 0.111088 0.38  0.71182
 C3 0.446359 0.053714 0.44634  -0.123405833333
 C2 0.110937 0.388815 0.11090  0.71182
 C3 0.05362 0.446279 0.05360  -0.123405833333
 C2 0.610967 0.610937 0.8889  0.71182
 C3 0.553626 0.553619 0.94628  -0.123405833333
 C2 0.889023 0.889079 0.61119  0.71182
 C3 0.946341 0.946382 0.55371  -0.123405833333
 C2 0.889029 0.611169 0.88909  0.71182
 C3 0.946346 0.553704 0.94639  -0.123405833333
 C2 0.610921 0.888898 0.61  0.71182
 C3 0.553603 0.946273 0.55365  -0.123405833333
 C2 0.888913 0.61097 0.61093  0.71182
 C3 0.94627 0.553653 0.55360  -0.123405833333
 C2 0.611145 0.889053 0.88912  0.71182
 C3 0.553694 0.946363 0.94641  -0.123405833333
 O1 0.250012 0.250008 0.2499  -1.27398
 O1 0.749955 0.749978 0.75000  -1.27398
 O2 0.366741 0.366845 0.07146  -0.6145875
 O2 0.367039 0.367078 0.19486  -0.6145875
 O2 0.071348 0.194689 0.36657  -0.6145875
 O2 0.194736 0.07131 0.3666  -0.6145875
 O2 0.366676 0.071344 0.19465  -0.6145875
 O2 0.366651 0.194719 0.07127  -0.6145875
 O2 0.071422 0.366826 0.366  -0.6145875
 O2 0.194872 0.367031 0.36710  -0.6145875
 O2 0.367186 0.194887 0.36691  -0.6145875
 O2 0.366711 0.071478 0.36686  -0.6145875
 O2 0.071346 0.366562 0.19467  -0.6145875
 O2 0.194728 0.36676 0.07130  -0.6145875
 O2 0.633223 0.633144 0.92852  -0.6145875
 O2 0.632927 0.632909 0.80512  -0.6145875
 O2 0.80523 0.928677 0.63331  -0.6145875
 O2 0.928619 0.805297 0.63342  -0.6145875
 O2 0.92862 0.633427 0.80531  -0.6145875
 O2 0.805238 0.633227 0.92869  -0.6145875
 O2 0.633258 0.928509 0.63312  -0.6145875
 O2 0.632785 0.8051 0.63307  -0.6145875
 O2 0.805094 0.632952 0.63289  -0.6145875
 O2 0.928544 0.633155 0.63320  -0.6145875
 O2 0.633284 0.928642 0.80534  -0.6145875
 O2 0.633305 0.805267 0.92872  -0.6145875
