#======================================================================

# CRYSTAL DATA

#----------------------------------------------------------------------

data_VESTA_phase_1


_pd_phase_name                         MOF
_cell_length_a                         12.54900
_cell_length_b                         22.95400
_cell_length_c                         14.84000
_cell_angle_alpha                      90.00000
_cell_angle_beta                       90.00000
_cell_angle_gamma                      89.99900
_symmetry_space_group_name_H-M         "P 1"
_symmetry_Int_Tables_number            1

loop_
_symmetry_equiv_pos_as_xyz
   "x, y, z"

loop_
   _atom_site_label
   _atom_site_fract_x
   _atom_site_fract_y
   _atom_site_fract_z
 _atom_site_charge
 Zn1 0.500024 0.750009 0.76154  0.848743196721
 Zn1 0.500017 0.250002 0.73845  0.848743196721
 Zn1 0.500017 0.250003 0.23845  0.848743196721
 Zn1 0.500024 0.75001 0.26155  0.848743196721
 H1 0.070804 0.911276 0.85832  0.108399446721
 H1 0.211797 0.837608 0.8624  0.108399446721
 H1 0.210246 0.843233 0.15348  0.108399446721
 H1 0.069128 0.916779 0.14972  0.108399446721
 H1 0.664279 0.958617 0.79225  0.108399446721
 H1 0.656085 0.850755 0.79815  0.108399446721
 H1 0.339572 0.848664 0.72079  0.108399446721
 H1 0.330978 0.956497 0.71369  0.108399446721
 H1 0.929244 0.588742 0.85832  0.108399446721
 H1 0.788251 0.66241 0.8624  0.108399446721
 H1 0.789801 0.656788 0.15348  0.108399446721
 H1 0.930919 0.583243 0.14972  0.108399446721
 H1 0.33577 0.541401 0.79225  0.108399446721
 H1 0.343962 0.649262 0.79815  0.108399446721
 H1 0.660475 0.651354 0.72079  0.108399446721
 H1 0.669071 0.543521 0.71369  0.108399446721
 H1 0.070796 0.088734 0.6416  0.108399446721
 H1 0.211787 0.1624 0.63751  0.108399446721
 H1 0.210235 0.156777 0.34651  0.108399446721
 H1 0.06912 0.083233 0.35027  0.108399446721
 H1 0.664267 0.041388 0.70774  0.108399446721
 H1 0.656079 0.14925 0.70184  0.108399446721
 H1 0.339566 0.151351 0.77920  0.108399446721
 H1 0.330966 0.043519 0.78630  0.108399446721
 H1 0.929238 0.41127 0.64167  0.108399446721
 H1 0.788248 0.337604 0.63751  0.108399446721
 H1 0.789797 0.343227 0.34651  0.108399446721
 H1 0.930913 0.416772 0.35027  0.108399446721
 H1 0.335768 0.458615 0.70774  0.108399446721
 H1 0.343955 0.350753 0.70184  0.108399446721
 H1 0.660468 0.348652 0.77920  0.108399446721
 H1 0.669069 0.456485 0.78629  0.108399446721
 H1 0.929238 0.088736 0.14167  0.108399446721
 H1 0.788244 0.162404 0.13751  0.108399446721
 H1 0.789795 0.156779 0.84651  0.108399446721
 H1 0.930913 0.083233 0.85027  0.108399446721
 H1 0.335764 0.041395 0.20774  0.108399446721
 H1 0.343954 0.149257 0.20185  0.108399446721
 H1 0.660467 0.151348 0.27920  0.108399446721
 H1 0.669065 0.043515 0.286  0.108399446721
 H1 0.070797 0.411271 0.14167  0.108399446721
 H1 0.21179 0.337603 0.13751  0.108399446721
 H1 0.210239 0.343224 0.84651  0.108399446721
 H1 0.069121 0.41677 0.85027  0.108399446721
 H1 0.664268 0.458612 0.20774  0.108399446721
 H1 0.656079 0.35075 0.20185  0.108399446721
 H1 0.339566 0.348658 0.27920  0.108399446721
 H1 0.330967 0.456491 0.28629  0.108399446721
 H1 0.929244 0.911278 0.35832  0.108399446721
 H1 0.788254 0.837612 0.36248  0.108399446721
 H1 0.789804 0.843234 0.65348  0.108399446721
 H1 0.93092 0.916779 0.64972  0.108399446721
 H1 0.335775 0.958624 0.29226  0.108399446721
 H1 0.343961 0.850762 0.29815  0.108399446721
 H1 0.660474 0.848661 0.22079  0.108399446721
 H1 0.669076 0.956494 0.21370  0.108399446721
 H1 0.070802 0.588741 0.35832  0.108399446721
 H1 0.211792 0.662408 0.36248  0.108399446721
 H1 0.210243 0.656784 0.65348  0.108399446721
 H1 0.069127 0.58324 0.64972  0.108399446721
 H1 0.66427 0.541396 0.29226  0.108399446721
 H1 0.656086 0.649258 0.29815  0.108399446721
 H1 0.339573 0.651361 0.22079  0.108399446721
 H1 0.33097 0.543528 0.21370  0.108399446721
 C1 0.180139 0.858118 0.08857  -0.154993053279
 C2 0.222256 0.834565 0.00826  -0.0471218032787
 C3 0.346364 0.766779 0.93125  0.359875696721
 C3 0.345628 0.768523 0.09081  0.359875696721
 C2 0.305004 0.79002 0.01029  -0.0471218032787
 C4 0.586384 0.876186 0.77881  0.186628196721
 C1 0.589965 0.936641 0.77539  -0.154993053279
 C2 0.497649 0.96782 0.75220  -0.0471218032787
 C1 0.181041 0.855035 0.92563  -0.154993053279
 C1 0.405314 0.935497 0.7332  -0.154993053279
 C5 0.973872 0.966459 0.00105  0.0115781967213
 C3 0.904351 0.963092 0.08038  0.359875696721
 C3 0.906484 0.960521 0.9207  0.359875696721
 C1 0.1 0.899709 0.08636  -0.154993053279
 C2 0.059345 0.919383 0.00370  -0.0471218032787
 C4 0.409113 0.875058 0.73722  0.186628196721
 C1 0.101006 0.896636 0.92334  -0.154993053279
 C1 0.819909 0.641904 0.08857  -0.154993053279
 C2 0.777792 0.665458 0.00826  -0.0471218032787
 C3 0.653684 0.733239 0.93125  0.359875696721
 C3 0.654419 0.731498 0.0908  0.359875696721
 C2 0.695044 0.710002 0.01029  -0.0471218032787
 C4 0.413661 0.623832 0.77880  0.186628196721
 C1 0.410083 0.563377 0.77539  -0.154993053279
 C2 0.502396 0.532199 0.75219  -0.0471218032787
 C1 0.819007 0.644983 0.92563  -0.154993053279
 C1 0.594734 0.564521 0.73323  -0.154993053279
 C5 0.026177 0.533563 0.00105  0.0115781967213
 C3 0.095697 0.536931 0.08038  0.359875696721
 C3 0.093564 0.539497 0.92073  0.359875696721
 C1 0.900048 0.600313 0.08636  -0.154993053279
 C2 0.940703 0.580639 0.00370  -0.0471218032787
 C4 0.590932 0.62496 0.73721  0.186628196721
 C1 0.899041 0.603382 0.92334  -0.154993053279
 C1 0.180129 0.141893 0.41142  -0.154993053279
 C2 0.222246 0.165446 0.49173  -0.0471218032787
 C3 0.346352 0.23323 0.56874  0.359875696721
 C3 0.345616 0.231488 0.40918  0.359875696721
 C2 0.304992 0.209991 0.48970  -0.0471218032787
 C4 0.586379 0.123822 0.72119  0.186628196721
 C1 0.589955 0.063366 0.72460  -0.154993053279
 C2 0.497638 0.032191 0.74779  -0.0471218032787
 C1 0.181031 0.144974 0.5743  -0.154993053279
 C1 0.405304 0.064516 0.76676  -0.154993053279
 C5 0.973861 0.033555 0.49894  0.0115781967213
 C3 0.90434 0.036925 0.41961  0.359875696721
 C3 0.906474 0.039494 0.57927  0.359875696721
 C1 0.099991 0.100303 0.41363  -0.154993053279
 C2 0.059337 0.080629 0.49629  -0.0471218032787
 C4 0.409107 0.124955 0.76277  0.186628196721
 C1 0.100998 0.103373 0.57665  -0.154993053279
 C1 0.819904 0.358112 0.41142  -0.154993053279
 C2 0.777788 0.334558 0.49173  -0.0471218032787
 C3 0.653682 0.266775 0.56874  0.359875696721
 C3 0.654416 0.268517 0.40918  0.359875696721
 C2 0.695041 0.290014 0.48970  -0.0471218032787
 C4 0.413655 0.376182 0.72119  0.186628196721
 C1 0.41008 0.436637 0.724  -0.154993053279
 C2 0.502394 0.467812 0.74780  -0.0471218032787
 C1 0.819003 0.35503 0.5743  -0.154993053279
 C1 0.594731 0.435487 0.76675  -0.154993053279
 C5 0.026173 0.466449 0.49894  0.0115781967213
 C3 0.095693 0.463079 0.41961  0.359875696721
 C3 0.09356 0.46051 0.57927  0.359875696721
 C1 0.900041 0.399702 0.41363  -0.154993053279
 C2 0.940697 0.419376 0.49629  -0.0471218032787
 C4 0.590926 0.375048 0.7627  0.186628196721
 C1 0.899036 0.396631 0.57665  -0.154993053279
 C1 0.819902 0.141894 0.91142  -0.154993053279
 C2 0.777785 0.165448 0.99173  -0.0471218032787
 C3 0.653677 0.233233 0.06874  0.359875696721
 C3 0.654412 0.231488 0.90918  0.359875696721
 C2 0.695036 0.209992 0.98970  -0.0471218032787
 C4 0.413651 0.123826 0.22120  0.186628196721
 C1 0.410076 0.063371 0.22460  -0.154993053279
 C2 0.502386 0.032193 0.24781  -0.0471218032787
 C1 0.819 0.144978 0.07436  -0.154993053279
 C1 0.594728 0.064515 0.26676  -0.154993053279
 C5 0.02617 0.033553 0.99894  0.0115781967213
 C3 0.09569 0.036921 0.91961  0.359875696721
 C3 0.093557 0.039492 0.07927  0.359875696721
 C1 0.900041 0.100303 0.91363  -0.154993053279
 C2 0.940696 0.080629 0.99629  -0.0471218032787
 C4 0.590923 0.124954 0.26279  0.186628196721
 C1 0.899035 0.103376 0.07665  -0.154993053279
 C1 0.180132 0.358109 0.91142  -0.154993053279
 C2 0.222249 0.334555 0.99173  -0.0471218032787
 C3 0.346357 0.266774 0.06874  0.359875696721
 C3 0.345621 0.268514 0.90918  0.359875696721
 C2 0.304997 0.29001 0.98970  -0.0471218032787
 C4 0.586383 0.37618 0.22120  0.186628196721
 C1 0.589956 0.436636 0.22460  -0.154993053279
 C2 0.497648 0.467813 0.2478  -0.0471218032787
 C1 0.181034 0.355029 0.07436  -0.154993053279
 C1 0.405305 0.435491 0.2667  -0.154993053279
 C5 0.973865 0.46645 0.99894  0.0115781967213
 C3 0.904344 0.463082 0.91961  0.359875696721
 C3 0.906478 0.460515 0.07927  0.359875696721
 C1 0.099994 0.3997 0.91363  -0.154993053279
 C2 0.059339 0.419374 0.99629  -0.0471218032787
 C4 0.409111 0.375051 0.26279  0.186628196721
 C1 0.101 0.396631 0.07665  -0.154993053279
 C1 0.819911 0.858119 0.58857  -0.154993053279
 C2 0.777794 0.834566 0.50826  -0.0471218032787
 C3 0.653688 0.766783 0.43125  0.359875696721
 C3 0.654424 0.768524 0.5908  0.359875696721
 C2 0.695048 0.790021 0.51029  -0.0471218032787
 C4 0.41366 0.87619 0.27880  0.186628196721
 C1 0.410087 0.936646 0.27540  -0.154993053279
 C2 0.502398 0.967821 0.25219  -0.0471218032787
 C1 0.819009 0.855038 0.42563  -0.154993053279
 C1 0.594738 0.935496 0.23324  -0.154993053279
 C5 0.02618 0.966457 0.50105  0.0115781967213
 C3 0.0957 0.963086 0.5803  0.359875696721
 C3 0.093567 0.960517 0.4207  0.359875696721
 C1 0.900048 0.899709 0.58636  -0.154993053279
 C2 0.940703 0.919383 0.50370  -0.0471218032787
 C4 0.590931 0.875057 0.23721  0.186628196721
 C1 0.899042 0.896639 0.42334  -0.154993053279
 C1 0.180136 0.6419 0.58857  -0.154993053279
 C2 0.222253 0.665453 0.50826  -0.0471218032787
 C3 0.346359 0.733237 0.43125  0.359875696721
 C3 0.345624 0.731494 0.59081  0.359875696721
 C2 0.304999 0.709997 0.51029  -0.0471218032787
 C4 0.586388 0.623831 0.278  0.186628196721
 C1 0.589959 0.563375 0.27540  -0.154993053279
 C2 0.497649 0.5322 0.25218  -0.0471218032787
 C1 0.181038 0.644981 0.42563  -0.154993053279
 C1 0.405308 0.564525 0.23324  -0.154993053279
 C5 0.973867 0.533562 0.50105  0.0115781967213
 C3 0.904347 0.536933 0.58038  0.359875696721
 C3 0.90648 0.539502 0.4207  0.359875696721
 C1 0.099999 0.60031 0.58636  -0.154993053279
 C2 0.059344 0.580636 0.50370  -0.0471218032787
 C4 0.409117 0.624965 0.23721  0.186628196721
 C1 0.101004 0.603381 0.42334  -0.154993053279
 N1 0.378719 0.747262 0.86317  -0.494671803279
 N1 0.377956 0.750047 0.15959  -0.494671803279
 N2 0.850662 0.959276 0.14419  -0.339996803279
 N3 0.497836 0.845342 0.75968  -0.328121803279
 N2 0.85458 0.954715 0.85622  -0.339996803279
 N1 0.621329 0.752756 0.86317  -0.494671803279
 N1 0.622092 0.749974 0.15959  -0.494671803279
 N2 0.149385 0.540746 0.14419  -0.339996803279
 N3 0.502217 0.654675 0.75970  -0.328121803279
 N2 0.145468 0.545304 0.85622  -0.339996803279
 N1 0.37871 0.252749 0.63682  -0.494671803279
 N1 0.377946 0.249965 0.34041  -0.494671803279
 N2 0.850652 0.040743 0.35580  -0.339996803279
 N3 0.497825 0.154668 0.74029  -0.328121803279
 N2 0.85457 0.045302 0.64378  -0.339996803279
 N1 0.621325 0.247255 0.63682  -0.494671803279
 N1 0.622087 0.25004 0.34041  -0.494671803279
 N2 0.149381 0.459262 0.35580  -0.339996803279
 N3 0.502209 0.345336 0.74029  -0.328121803279
 N2 0.145464 0.454702 0.64378  -0.339996803279
 N1 0.621323 0.252751 0.13682  -0.494671803279
 N1 0.622085 0.249964 0.8404  -0.494671803279
 N2 0.149379 0.040737 0.85580  -0.339996803279
 N3 0.502214 0.154669 0.24028  -0.328121803279
 N2 0.145461 0.045298 0.14378  -0.339996803279
 N1 0.378712 0.247256 0.13682  -0.494671803279
 N1 0.377948 0.250038 0.8404  -0.494671803279
 N2 0.850656 0.459267 0.85580  -0.339996803279
 N3 0.497818 0.345337 0.2402  -0.328121803279
 N2 0.854574 0.454709 0.1437  -0.339996803279
 N1 0.621331 0.747264 0.36317  -0.494671803279
 N1 0.622096 0.750046 0.65958  -0.494671803279
 N2 0.149388 0.959269 0.64419  -0.339996803279
 N3 0.502218 0.845345 0.25971  -0.328121803279
 N2 0.14547 0.95471 0.35622  -0.339996803279
 N1 0.378716 0.752757 0.36317  -0.494671803279
 N1 0.377953 0.749972 0.65958  -0.494671803279
 N2 0.850659 0.540749 0.64419  -0.339996803279
 N3 0.497827 0.654676 0.2597  -0.328121803279
 N2 0.854576 0.545309 0.3562  -0.339996803279
