#======================================================================

# CRYSTAL DATA

#----------------------------------------------------------------------

data_VESTA_phase_1


_pd_phase_name                         MOF
_cell_length_a                         18.39000
_cell_length_b                         18.38800
_cell_length_c                         18.39300
_cell_angle_alpha                      60.43700
_cell_angle_beta                       60.42800
_cell_angle_gamma                      60.43600
_symmetry_space_group_name_H-M         "P 1"
_symmetry_Int_Tables_number            1

loop_
_symmetry_equiv_pos_as_xyz
   "x, y, z"

loop_
   _atom_site_label
   _atom_site_fract_x
   _atom_site_fract_y
   _atom_site_fract_z
 _atom_site_charge
 Zn1 0.380169 0.206971 0.20703  1.12175783019
 Zn1 0.206968 0.380151 0.20696  1.12175783019
 Zn1 0.207038 0.206972 0.38011  1.12175783019
 Zn1 0.20596 0.206046 0.20601  1.12175783019
 Zn1 0.793022 0.619849 0.79302  1.12175783019
 Zn1 0.619823 0.79303 0.7929  1.12175783019
 Zn1 0.792954 0.793028 0.61987  1.12175783019
 Zn1 0.794034 0.793953 0.79397  1.12175783019
 H1 0.335873 0.048493 0.56783  0.0882553301887
 H1 0.046818 0.335928 0.04701  0.0882553301887
 H1 0.567984 0.048554 0.33590  0.0882553301887
 H1 0.049251 0.567171 0.04923  0.0882553301887
 H1 0.335878 0.567862 0.04848  0.0882553301887
 H1 0.049307 0.04926 0.56709  0.0882553301887
 H1 0.56794 0.335876 0.04860  0.0882553301887
 H1 0.046806 0.047006 0.33596  0.0882553301887
 H1 0.335934 0.046982 0.04698  0.0882553301887
 H1 0.048483 0.567928 0.33590  0.0882553301887
 H1 0.567273 0.049174 0.04920  0.0882553301887
 H1 0.048546 0.335878 0.5678  0.0882553301887
 H1 0.951448 0.664121 0.43213  0.0882553301887
 H1 0.664061 0.953005 0.95301  0.0882553301887
 H1 0.951512 0.432071 0.66408  0.0882553301887
 H1 0.432722 0.950814 0.95079  0.0882553301887
 H1 0.432048 0.664127 0.95139  0.0882553301887
 H1 0.95068 0.950746 0.43289  0.0882553301887
 H1 0.664111 0.432141 0.95151  0.0882553301887
 H1 0.95318 0.953 0.66402  0.0882553301887
 H1 0.953165 0.664071 0.95298  0.0882553301887
 H1 0.43201 0.95145 0.66408  0.0882553301887
 H1 0.950731 0.432827 0.95076  0.0882553301887
 H1 0.664121 0.951511 0.43214  0.0882553301887
 C1 0.407771 0.026856 0.53891  -0.0518071698113
 C1 0.025941 0.407797 0.02605  -0.0518071698113
 C1 0.538978 0.026904 0.40778  -0.0518071698113
 C1 0.027284 0.538519 0.02727  -0.0518071698113
 C1 0.407775 0.538932 0.02684  -0.0518071698113
 C1 0.02731 0.027293 0.5384  -0.0518071698113
 C1 0.538958 0.407769 0.02692  -0.0518071698113
 C1 0.025928 0.026052 0.40781  -0.0518071698113
 C1 0.407806 0.026025 0.02603  -0.0518071698113
 C1 0.026853 0.538957 0.4077  -0.0518071698113
 C1 0.538566 0.027243 0.02727  -0.0518071698113
 C1 0.026889 0.407774 0.53891  -0.0518071698113
 C1 0.973105 0.592225 0.46107  -0.0518071698113
 C1 0.592189 0.973962 0.97396  -0.0518071698113
 C1 0.973142 0.461042 0.59220  -0.0518071698113
 C1 0.461429 0.972745 0.97272  -0.0518071698113
 C1 0.46103 0.592233 0.97307  -0.0518071698113
 C1 0.972677 0.972713 0.46150  -0.0518071698113
 C1 0.592214 0.461071 0.97315  -0.0518071698113
 C1 0.974059 0.973955 0.59217  -0.0518071698113
 C1 0.974042 0.592201 0.97394  -0.0518071698113
 C1 0.461016 0.9731 0.59220  -0.0518071698113
 C1 0.972699 0.46148 0.9727  -0.0518071698113
 C1 0.592223 0.973148 0.46107  -0.0518071698113
 C2 0.389138 0.111776 0.38909  0.723160330189
 C3 0.446421 0.054078 0.44638  -0.114062169811
 C2 0.110893 0.388403 0.11102  0.723160330189
 C3 0.053585 0.445977 0.05368  -0.114062169811
 C2 0.389107 0.389088 0.11180  0.723160330189
 C3 0.446406 0.446384 0.05409  -0.114062169811
 C2 0.110929 0.111031 0.38837  0.723160330189
 C3 0.053607 0.05368 0.44596  -0.114062169811
 C2 0.388462 0.110977 0.11100  0.723160330189
 C3 0.446019 0.053643 0.05365  -0.114062169811
 C2 0.111792 0.389108 0.38907  0.723160330189
 C3 0.054074 0.446404 0.44638  -0.114062169811
 C2 0.888203 0.610891 0.61091  0.723160330189
 C3 0.945921 0.553595 0.55360  -0.114062169811
 C2 0.611532 0.889016 0.88899  0.723160330189
 C3 0.553975 0.946346 0.94634  -0.114062169811
 C2 0.610881 0.610915 0.88818  0.723160330189
 C3 0.553582 0.553618 0.94590  -0.114062169811
 C2 0.88906 0.888973 0.61161  0.723160330189
 C3 0.94638 0.946326 0.55402  -0.114062169811
 C2 0.889093 0.611595 0.88896  0.723160330189
 C3 0.946398 0.554021 0.94631  -0.114062169811
 C2 0.610855 0.888227 0.61089  0.723160330189
 C3 0.553572 0.945925 0.55360  -0.114062169811
 O1 0.249891 0.249879 0.24987  -1.31309216981
 O1 0.7501 0.750121 0.75011  -1.31309216981
 O2 0.428601 0.134164 0.3054  -0.605492169811
 O2 0.133441 0.427834 0.1335  -0.605492169811
 O2 0.305474 0.133909 0.42853  -0.605492169811
 O2 0.132533 0.304721 0.13273  -0.605492169811
 O2 0.428564 0.305434 0.13419  -0.605492169811
 O2 0.1325 0.132792 0.30471  -0.605492169811
 O2 0.305445 0.428545 0.13389  -0.605492169811
 O2 0.133513 0.133508 0.42777  -0.605492169811
 O2 0.427911 0.133442 0.13355  -0.605492169811
 O2 0.134089 0.305448 0.42851  -0.605492169811
 O2 0.304781 0.132664 0.13268  -0.605492169811
 O2 0.134022 0.428566 0.30543  -0.605492169811
 O2 0.865979 0.571433 0.69456  -0.605492169811
 O2 0.572083 0.866557 0.86643  -0.605492169811
 O2 0.8659 0.69455 0.57147  -0.605492169811
 O2 0.695213 0.867328 0.86730  -0.605492169811
 O2 0.694542 0.571458 0.86608  -0.605492169811
 O2 0.867488 0.867213 0.69527  -0.605492169811
 O2 0.571424 0.694569 0.86580  -0.605492169811
 O2 0.866481 0.866491 0.5722  -0.605492169811
 O2 0.866535 0.572164 0.86648  -0.605492169811
 O2 0.69452 0.866096 0.57144  -0.605492169811
 O2 0.867464 0.695278 0.86724  -0.605492169811
 O2 0.571392 0.865834 0.69453  -0.605492169811
