#======================================================================

# CRYSTAL DATA

#----------------------------------------------------------------------

data_VESTA_phase_1


_pd_phase_name                         MOF
_cell_length_a                         15.41000
_cell_length_b                         21.43300
_cell_length_c                         21.43400
_cell_angle_alpha                      119.98400
_cell_angle_beta                       89.98400
_cell_angle_gamma                      90.00800
_symmetry_space_group_name_H-M         "P 1"
_symmetry_Int_Tables_number            1

loop_
_symmetry_equiv_pos_as_xyz
   "x, y, z"

loop_
   _atom_site_label
   _atom_site_fract_x
   _atom_site_fract_y
   _atom_site_fract_z
 _atom_site_charge
 Zn1 6e-06 0.300832 0.6991  1.02671078704
 Zn1 0.500017 0.300832 0.69910  1.02671078704
 Zn1 0.333348 0.398452 0.69915  1.02671078704
 Zn1 0.833359 0.398453 0.69915  1.02671078704
 Zn1 0.166659 0.300824 0.60155  1.02671078704
 Zn1 0.66667 0.300824 0.60155  1.02671078704
 Zn1 0.999992 0.699153 0.30082  1.02671078704
 Zn1 0.500003 0.699153 0.30082  1.02671078704
 Zn1 0.333352 0.601602 0.30085  1.02671078704
 Zn1 0.833364 0.601601 0.30085  1.02671078704
 Zn1 0.166668 0.699163 0.39845  1.02671078704
 Zn1 0.666679 0.699163 0.39845  1.02671078704
 H1 0.067184 0.153642 0.40672  0.10403662037
 H1 0.567196 0.153642 0.40672  0.10403662037
 H1 0.270592 0.066338 0.41130  0.10403662037
 H1 0.770603 0.066339 0.41130  0.10403662037
 H1 0.337978 0.159781 0.52402  0.10403662037
 H1 0.837989 0.159781 0.52402  0.10403662037
 H1 0.500793 0.061717 0.29406  0.10403662037
 H1 0.0 0.061718 0.29406  0.10403662037
 H1 0.400479 0.253138 0.8462  0.10403662037
 H1 0.90049 0.253136 0.84628  0.10403662037
 H1 0.103935 0.345082 0.93371  0.10403662037
 H1 0.603945 0.345081 0.9337  0.10403662037
 H1 0.17133 0.36432 0.84018  0.10403662037
 H1 0.671341 0.36432 0.84018  0.10403662037
 H1 0.334065 0.232425 0.9382  0.10403662037
 H1 0.834075 0.232423 0.93827  0.10403662037
 H1 0.233752 0.593163 0.74682  0.10403662037
 H1 0.733763 0.593164 0.74682  0.10403662037
 H1 0.437229 0.588747 0.65499  0.10403662037
 H1 0.93724 0.588748 0.65499  0.10403662037
 H1 0.004591 0.475956 0.63563  0.10403662037
 H1 0.504603 0.475956 0.63563  0.10403662037
 H1 0.167367 0.705891 0.76763  0.10403662037
 H1 0.667378 0.705891 0.76763  0.10403662037
 H1 0.067137 0.846324 0.59317  0.10403662037
 H1 0.567149 0.846325 0.59317  0.10403662037
 H1 0.270615 0.933749 0.58871  0.10403662037
 H1 0.770626 0.933749 0.58871  0.10403662037
 H1 0.337965 0.840267 0.47596  0.10403662037
 H1 0.837976 0.840267 0.47596  0.10403662037
 H1 0.50078 0.938285 0.70586  0.10403662037
 H1 0.0 0.938284 0.70586  0.10403662037
 H1 0.400482 0.746883 0.15362  0.10403662037
 H1 0.900492 0.746885 0.15362  0.10403662037
 H1 0.103953 0.654884 0.0663  0.10403662037
 H1 0.603963 0.654885 0.06633  0.10403662037
 H1 0.171373 0.635653 0.15982  0.10403662037
 H1 0.671383 0.635654 0.15982  0.10403662037
 H1 0.334042 0.767591 0.06167  0.10403662037
 H1 0.834052 0.767593 0.06167  0.10403662037
 H1 0.23379 0.406842 0.25312  0.10403662037
 H1 0.733801 0.406842 0.25312  0.10403662037
 H1 0.437183 0.411202 0.34490  0.10403662037
 H1 0.937195 0.411202 0.34490  0.10403662037
 H1 0.004556 0.524009 0.36428  0.10403662037
 H1 0.504567 0.524009 0.36428  0.10403662037
 H1 0.167398 0.294098 0.23230  0.10403662037
 H1 0.667409 0.294098 0.23230  0.10403662037
 H1 0.266234 0.746874 0.59320  0.10403662037
 H1 0.766246 0.746875 0.59320  0.10403662037
 H1 0.062802 0.65506 0.58873  0.10403662037
 H1 0.562813 0.65506 0.58873  0.10403662037
 H1 0.495424 0.635691 0.47596  0.10403662037
 H1 0.995435 0.635691 0.47596  0.10403662037
 H1 0.332632 0.767685 0.70591  0.10403662037
 H1 0.832644 0.767686 0.70591  0.10403662037
 H1 0.432835 0.406778 0.15366  0.10403662037
 H1 0.932846 0.406777 0.15366  0.10403662037
 H1 0.229423 0.411305 0.06629  0.10403662037
 H1 0.729434 0.411305 0.06629  0.10403662037
 H1 0.16205 0.52404 0.15977  0.10403662037
 H1 0.662061 0.52404 0.15977  0.10403662037
 H1 0.999216 0.294102 0.06171  0.10403662037
 H1 0.499228 0.294102 0.06171  0.10403662037
 H1 0.099553 0.846311 0.25314  0.10403662037
 H1 0.599564 0.846311 0.25314  0.10403662037
 H1 0.396055 0.933745 0.34510  0.10403662037
 H1 0.896066 0.933745 0.34510  0.10403662037
 H1 0.328661 0.840228 0.36435  0.10403662037
 H1 0.828672 0.840229 0.36435  0.10403662037
 H1 0.165965 0.938286 0.23241  0.10403662037
 H1 0.665977 0.938286 0.23241  0.10403662037
 H1 0.266237 0.25317 0.40689  0.10403662037
 H1 0.76625 0.253168 0.40689  0.10403662037
 H1 0.06281 0.344937 0.41115  0.10403662037
 H1 0.56282 0.344938 0.41115  0.10403662037
 H1 0.495469 0.364327 0.52398  0.10403662037
 H1 0.995482 0.364326 0.52398  0.10403662037
 H1 0.332598 0.232334 0.29412  0.10403662037
 H1 0.832611 0.232332 0.29412  0.10403662037
 H1 0.432856 0.593251 0.84636  0.10403662037
 H1 0.932868 0.593251 0.8463  0.10403662037
 H1 0.229368 0.58865 0.93369  0.10403662037
 H1 0.729378 0.58865 0.933  0.10403662037
 H1 0.161989 0.475935 0.84021  0.10403662037
 H1 0.661999 0.475935 0.8402  0.10403662037
 H1 0.999245 0.705906 0.9383  0.10403662037
 H1 0.499256 0.705906 0.93831  0.10403662037
 H1 0.099529 0.153661 0.7468  0.10403662037
 H1 0.599541 0.153662 0.7468  0.10403662037
 H1 0.396105 0.066356 0.65493  0.10403662037
 H1 0.896117 0.066356 0.65493  0.10403662037
 H1 0.328677 0.159836 0.63567  0.10403662037
 H1 0.828688 0.159835 0.63567  0.10403662037
 H1 0.165972 0.061714 0.76761  0.10403662037
 H1 0.665985 0.061716 0.76761  0.10403662037
 C1 0.000308 0.218007 0.5407  0.724927453704
 C1 0.50032 0.218007 0.54077  0.724927453704
 C2 0.002309 0.133953 0.40746  -0.0742077546296
 C2 0.50232 0.133954 0.40746  -0.0742077546296
 C2 0.335811 0.085089 0.40980  -0.0742077546296
 C2 0.835822 0.085089 0.40980  -0.0742077546296
 C2 0.373809 0.137317 0.47360  -0.0742077546296
 C2 0.87382 0.137316 0.47360  -0.0742077546296
 C3 0.457841 0.162126 0.47303  -0.0466196296296
 C3 0.957851 0.162127 0.47303  -0.0466196296296
 C2 0.464185 0.08169 0.34369  -0.0742077546296
 C2 0.964196 0.08169 0.34369  -0.0742077546296
 C3 0.380484 0.056242 0.34395  -0.0466196296296
 C3 0.880496 0.056241 0.34395  -0.0466196296296
 C4 0.269828 0.043257 0.25343  0.69124912037
 C4 0.769839 0.043257 0.25343  0.69124912037
 C1 0.333613 0.322859 0.7819  0.724927453704
 C1 0.833623 0.322856 0.78191  0.724927453704
 C2 0.335619 0.273582 0.86599  -0.0742077546296
 C2 0.83563 0.273581 0.86599  -0.0742077546296
 C2 0.169136 0.324813 0.91493  -0.0742077546296
 C2 0.669147 0.324812 0.91493  -0.0742077546296
 C2 0.207137 0.336368 0.86266  -0.0742077546296
 C2 0.707148 0.336367 0.86266  -0.0742077546296
 C3 0.291149 0.310981 0.83782  -0.0466196296296
 C3 0.791158 0.310977 0.83782  -0.0466196296296
 C2 0.29748 0.26208 0.91829  -0.0742077546296
 C2 0.79749 0.262078 0.91829  -0.0742077546296
 C3 0.213791 0.287785 0.94376  -0.0466196296296
 C3 0.713803 0.287787 0.94376  -0.0466196296296
 C4 0.103165 0.210195 0.95674  0.69124912037
 C4 0.603175 0.210195 0.95674  0.69124912037
 C1 0.166885 0.459123 0.67705  0.724927453704
 C1 0.666897 0.459123 0.67705  0.724927453704
 C2 0.168894 0.592459 0.72640  -0.0742077546296
 C2 0.668905 0.59246 0.72640  -0.0742077546296
 C2 0.002422 0.590209 0.67522  -0.0742077546296
 C2 0.502434 0.590209 0.6752  -0.0742077546296
 C2 0.040408 0.526377 0.66361  -0.0742077546296
 C2 0.54042 0.526378 0.66361  -0.0742077546296
 C3 0.124417 0.526905 0.68897  -0.0466196296296
 C3 0.624429 0.526905 0.68897  -0.0466196296296
 C2 0.130773 0.656267 0.73795  -0.0742077546296
 C2 0.630784 0.656267 0.73795  -0.0742077546296
 C3 0.047099 0.656043 0.71225  -0.0466196296296
 C3 0.54711 0.656043 0.71225  -0.0466196296296
 C4 0.436489 0.746575 0.78981  0.69124912037
 C4 0.9365 0.746575 0.78981  0.69124912037
 C1 0.000255 0.781975 0.45915  0.724927453704
 C1 0.500268 0.781976 0.45915  0.724927453704
 C2 0.002278 0.86604 0.59245  -0.0742077546296
 C2 0.50229 0.866041 0.59245  -0.0742077546296
 C2 0.335819 0.914971 0.59018  -0.0742077546296
 C2 0.83583 0.914971 0.59018  -0.0742077546296
 C2 0.373796 0.862724 0.52637  -0.0742077546296
 C2 0.873807 0.862724 0.52637  -0.0742077546296
 C3 0.457808 0.837883 0.52690  -0.0466196296296
 C3 0.957818 0.837882 0.52690  -0.0466196296296
 C2 0.464175 0.918322 0.65624  -0.0742077546296
 C2 0.964186 0.918321 0.65624  -0.0742077546296
 C3 0.38049 0.943794 0.65601  -0.0466196296296
 C3 0.880502 0.943795 0.65601  -0.0466196296296
 C4 0.269829 0.95675 0.74655  0.69124912037
 C4 0.76984 0.95675 0.74655  0.69124912037
 C1 0.33365 0.677155 0.21803  0.724927453704
 C1 0.833659 0.677158 0.21804  0.724927453704
 C2 0.335623 0.726429 0.13394  -0.0742077546296
 C2 0.835633 0.72643 0.13395  -0.0742077546296
 C2 0.16915 0.675168 0.0850  -0.0742077546296
 C2 0.66916 0.67517 0.08508  -0.0742077546296
 C2 0.207168 0.663618 0.1373  -0.0742077546296
 C2 0.707178 0.663619 0.13733  -0.0742077546296
 C3 0.291174 0.689023 0.16214  -0.0466196296296
 C3 0.791183 0.689027 0.16214  -0.0466196296296
 C2 0.297467 0.737926 0.08167  -0.0742077546296
 C2 0.797477 0.737928 0.08167  -0.0742077546296
 C3 0.213783 0.712205 0.05623  -0.0466196296296
 C3 0.713795 0.712203 0.0562  -0.0466196296296
 C4 0.10316 0.789787 0.0432  0.69124912037
 C4 0.603171 0.789787 0.0432  0.69124912037
 C1 0.166895 0.540869 0.32290  0.724927453704
 C1 0.666906 0.540869 0.32290  0.724927453704
 C2 0.168914 0.407531 0.27353  -0.0742077546296
 C2 0.668926 0.407532 0.27353  -0.0742077546296
 C2 0.002396 0.409756 0.32468  -0.0742077546296
 C2 0.502407 0.409755 0.32468  -0.0742077546296
 C2 0.040385 0.473593 0.33630  -0.0742077546296
 C2 0.540397 0.473593 0.33630  -0.0742077546296
 C3 0.124418 0.473077 0.3109  -0.0466196296296
 C3 0.624429 0.473077 0.31095  -0.0466196296296
 C2 0.13079 0.343717 0.26197  -0.0742077546296
 C2 0.630801 0.343717 0.26197  -0.0742077546296
 C3 0.047097 0.343932 0.28767  -0.0466196296296
 C3 0.547109 0.343932 0.28767  -0.0466196296296
 C4 0.436488 0.253404 0.21015  0.69124912037
 C4 0.936499 0.253404 0.21015  0.69124912037
 C1 0.333097 0.677096 0.45915  0.724927453704
 C1 0.833109 0.677097 0.45915  0.724927453704
 C2 0.3311 0.726455 0.5924  -0.0742077546296
 C2 0.831112 0.726456 0.5924  -0.0742077546296
 C2 0.497597 0.675288 0.59020  -0.0742077546296
 C2 0.997609 0.675289 0.59020  -0.0742077546296
 C2 0.459601 0.66367 0.52638  -0.0742077546296
 C2 0.959613 0.66367 0.52638  -0.0742077546296
 C3 0.375576 0.689025 0.52692  -0.0466196296296
 C3 0.875588 0.689026 0.52692  -0.0466196296296
 C2 0.369231 0.738009 0.65628  -0.0742077546296
 C2 0.869242 0.738009 0.65628  -0.0742077546296
 C3 0.452912 0.712299 0.65604  -0.0466196296296
 C3 0.952923 0.712297 0.65604  -0.0466196296296
 C4 0.063527 0.789833 0.74656  0.69124912037
 C4 0.563538 0.789833 0.74656  0.69124912037
 C1 0.499727 0.540823 0.21802  0.724927453704
 C1 0.999738 0.540823 0.21802  0.724927453704
 C2 0.49771 0.40751 0.13396  -0.0742077546296
 C2 0.99772 0.40751 0.13396  -0.0742077546296
 C2 0.164207 0.409816 0.08506  -0.0742077546296
 C2 0.664218 0.409816 0.08506  -0.0742077546296
 C2 0.126216 0.473621 0.13730  -0.0742077546296
 C2 0.626227 0.473621 0.13730  -0.0742077546296
 C3 0.042186 0.473069 0.16213  -0.0466196296296
 C3 0.542197 0.473069 0.16213  -0.0466196296296
 C2 0.035827 0.343727 0.0816  -0.0742077546296
 C2 0.535838 0.343727 0.0816  -0.0742077546296
 C3 0.119529 0.343973 0.05623  -0.0466196296296
 C3 0.61954 0.343973 0.05623  -0.0466196296296
 C4 0.230176 0.25343 0.04324  0.69124912037
 C4 0.730187 0.25343 0.04324  0.69124912037
 C1 0.166406 0.781948 0.32287  0.724927453704
 C1 0.666417 0.781948 0.32287  0.724927453704
 C2 0.164406 0.86602 0.27358  -0.0742077546296
 C2 0.664417 0.86602 0.27358  -0.0742077546296
 C2 0.330864 0.914961 0.32482  -0.0742077546296
 C2 0.830876 0.914961 0.32482  -0.0742077546296
 C2 0.292864 0.862701 0.33639  -0.0742077546296
 C2 0.792875 0.862701 0.33639  -0.0742077546296
 C3 0.208866 0.837855 0.31099  -0.0466196296296
 C3 0.708878 0.837855 0.31099  -0.0466196296296
 C2 0.202545 0.91831 0.26207  -0.0742077546296
 C2 0.702556 0.91831 0.26207  -0.0742077546296
 C3 0.286221 0.943783 0.2877  -0.0466196296296
 C3 0.786232 0.943783 0.28779  -0.0466196296296
 C4 0.396852 0.95675 0.21018  0.69124912037
 C4 0.896863 0.95675 0.21018  0.69124912037
 C1 0.333145 0.322931 0.54087  0.724927453704
 C1 0.83316 0.322928 0.54087  0.724927453704
 C2 0.331107 0.273571 0.40755  -0.0742077546296
 C2 0.83112 0.273569 0.40755  -0.0742077546296
 C2 0.497605 0.324717 0.40973  -0.0742077546296
 C2 0.997618 0.324716 0.40973  -0.0742077546296
 C2 0.459633 0.336345 0.4735  -0.0742077546296
 C2 0.959646 0.336345 0.47358  -0.0742077546296
 C3 0.375608 0.310999 0.47308  -0.0466196296296
 C3 0.875623 0.310995 0.47308  -0.0466196296296
 C2 0.369214 0.262006 0.34373  -0.0742077546296
 C2 0.869227 0.262004 0.34373  -0.0742077546296
 C3 0.452902 0.287698 0.34392  -0.0466196296296
 C3 0.952913 0.287701 0.34392  -0.0466196296296
 C4 0.063522 0.21016 0.25339  0.69124912037
 C4 0.563532 0.210161 0.25339  0.69124912037
 C1 0.499708 0.459187 0.78196  0.724927453704
 C1 0.999721 0.459188 0.78195  0.724927453704
 C2 0.497713 0.592501 0.86605  -0.0742077546296
 C2 0.997725 0.592501 0.86605  -0.0742077546296
 C2 0.164169 0.590157 0.91493  -0.0742077546296
 C2 0.664179 0.590157 0.9149  -0.0742077546296
 C2 0.126172 0.526361 0.86269  -0.0742077546296
 C2 0.626183 0.526361 0.86269  -0.0742077546296
 C3 0.042168 0.526932 0.83786  -0.0466196296296
 C3 0.542176 0.526931 0.83787  -0.0466196296296
 C2 0.035837 0.656274 0.9183  -0.0742077546296
 C2 0.535848 0.656273 0.91833  -0.0742077546296
 C3 0.119517 0.656011 0.94378  -0.0466196296296
 C3 0.619529 0.656011 0.94378  -0.0466196296296
 C4 0.230182 0.746554 0.95673  0.69124912037
 C4 0.730193 0.746554 0.95673  0.69124912037
 C1 0.166376 0.218038 0.67712  0.724927453704
 C1 0.666389 0.218039 0.6771  0.724927453704
 C2 0.164396 0.133981 0.72644  -0.0742077546296
 C2 0.664408 0.133981 0.72644  -0.0742077546296
 C2 0.330895 0.085106 0.67520  -0.0742077546296
 C2 0.830907 0.085106 0.67520  -0.0742077546296
 C2 0.292877 0.137349 0.66364  -0.0742077546296
 C2 0.792888 0.137349 0.6636  -0.0742077546296
 C3 0.208854 0.162158 0.68902  -0.0466196296296
 C3 0.708867 0.162159 0.68902  -0.0466196296296
 C2 0.202553 0.081705 0.73795  -0.0742077546296
 C2 0.702565 0.081706 0.73795  -0.0742077546296
 C3 0.286244 0.056258 0.71223  -0.0466196296296
 C3 0.786255 0.056257 0.71223  -0.0466196296296
 C4 0.396853 0.043255 0.78979  0.69124912037
 C4 0.896865 0.043255 0.78979  0.69124912037
 C5 0.33335 1.8e-05 0.27486  -0.298849212963
 C5 0.833361 1.8e-05 0.27486  -0.298849212963
 C5 0.166656 0.274864 6e-0  -0.298849212963
 C5 0.666668 0.274864 6e-0  -0.298849212963
 C5 6e-06 0.725181 0.72516  -0.298849212963
 C5 0.500018 0.725181 0.72516  -0.298849212963
 C5 0.333362 2.1e-05 0.72513  -0.298849212963
 C5 0.833373 2.1e-05 0.72513  -0.298849212963
 C5 0.166659 0.725111 7e-0  -0.298849212963
 C5 0.66667 0.725111 7e-0  -0.298849212963
 C5 0.0 0.2748 0.27478  -0.298849212963
 C5 0.500001 0.274801 0.27478  -0.298849212963
 O1 0.4596 0.237926 0.5999  -0.607078796296
 O1 0.959611 0.237924 0.59994  -0.607078796296
 O1 0.073525 0.241575 0.53430  -0.607078796296
 O1 0.573536 0.241577 0.53430  -0.607078796296
 O1 0.292906 0.362141 0.76204  -0.607078796296
 O1 0.792918 0.362142 0.7620  -0.607078796296
 O1 0.406783 0.292781 0.75828  -0.607078796296
 O1 0.906796 0.292783 0.75828  -0.607078796296
 O1 0.12621 0.399976 0.63772  -0.607078796296
 O1 0.626221 0.399977 0.63772  -0.607078796296
 O1 0.240051 0.465559 0.70712  -0.607078796296
 O1 0.740063 0.46556 0.70712  -0.607078796296
 O1 0.459572 0.762085 0.40000  -0.607078796296
 O1 0.959584 0.762087 0.40000  -0.607078796296
 O1 0.073427 0.758357 0.46561  -0.607078796296
 O1 0.573438 0.758356 0.46561  -0.607078796296
 O1 0.292939 0.63789 0.23794  -0.607078796296
 O1 0.792951 0.637888 0.23794  -0.607078796296
 O1 0.406841 0.707206 0.24162  -0.607078796296
 O1 0.906853 0.707204 0.2416  -0.607078796296
 O1 0.126204 0.600008 0.36224  -0.607078796296
 O1 0.626215 0.600008 0.36224  -0.607078796296
 O1 0.24009 0.534448 0.29285  -0.607078796296
 O1 0.740102 0.534448 0.29285  -0.607078796296
 O1 0.373789 0.637783 0.40000  -0.607078796296
 O1 0.8738 0.637782 0.40000  -0.607078796296
 O1 0.259904 0.707143 0.46560  -0.607078796296
 O1 0.759914 0.707141 0.46560  -0.607078796296
 O1 0.040428 0.599978 0.23791  -0.607078796296
 O1 0.540439 0.599979 0.23791  -0.607078796296
 O1 0.426532 0.534364 0.24163  -0.607078796296
 O1 0.926543 0.534364 0.24163  -0.607078796296
 O1 0.207099 0.762086 0.3621  -0.607078796296
 O1 0.70711 0.762088 0.36217  -0.607078796296
 O1 0.093245 0.758314 0.292  -0.607078796296
 O1 0.593256 0.758315 0.29280  -0.607078796296
 O1 0.373821 0.362277 0.60000  -0.607078796296
 O1 0.873832 0.36228 0.60000  -0.607078796296
 O1 0.25998 0.292848 0.53445  -0.607078796296
 O1 0.75999 0.292851 0.53445  -0.607078796296
 O1 0.040403 0.400025 0.76203  -0.607078796296
 O1 0.540416 0.400025 0.76202  -0.607078796296
 O1 0.42652 0.46567 0.75838  -0.607078796296
 O1 0.92653 0.46567 0.75838  -0.607078796296
 O1 0.207091 0.237913 0.63783  -0.607078796296
 O1 0.707102 0.237911 0.63783  -0.607078796296
 O1 0.093182 0.241643 0.70718  -0.607078796296
 O1 0.593192 0.241642 0.7071  -0.607078796296
 F1 0.203464 0.07207 0.30168  -0.197341990741
 F1 0.703476 0.072071 0.30168  -0.197341990741
 F1 0.233539 0.002828 0.18721  -0.197341990741
 F1 0.73355 0.002828 0.18721  -0.197341990741
 F1 0.31117 0.098928 0.25318  -0.197341990741
 F1 0.811181 0.098928 0.25318  -0.197341990741
 F1 0.036798 0.229632 0.92793  -0.197341990741
 F1 0.536809 0.229632 0.92793  -0.197341990741
 F1 0.066856 0.184384 0.99718  -0.197341990741
 F1 0.566867 0.184384 0.99718  -0.197341990741
 F1 0.144516 0.15431 0.90108  -0.197341990741
 F1 0.644527 0.154311 0.90108  -0.197341990741
 F1 0.370128 0.69832 0.77038  -0.197341990741
 F1 0.870139 0.698319 0.77038  -0.197341990741
 F1 0.400203 0.812808 0.81562  -0.197341990741
 F1 0.900214 0.812808 0.81562  -0.197341990741
 F1 0.477828 0.746801 0.84570  -0.197341990741
 F1 0.977839 0.746801 0.84570  -0.197341990741
 F1 0.203473 0.927935 0.69831  -0.197341990741
 F1 0.703484 0.927934 0.69831  -0.197341990741
 F1 0.233531 0.99717 0.81278  -0.197341990741
 F1 0.733542 0.99717 0.81278  -0.197341990741
 F1 0.311168 0.90108 0.74679  -0.197341990741
 F1 0.811179 0.90108 0.7467  -0.197341990741
 F1 0.036783 0.77036 0.0720  -0.197341990741
 F1 0.536795 0.77036 0.0720  -0.197341990741
 F1 0.066865 0.815599 0.0028  -0.197341990741
 F1 0.566876 0.815599 0.0028  -0.197341990741
 F1 0.144497 0.84568 0.09889  -0.197341990741
 F1 0.644509 0.84568 0.09889  -0.197341990741
 F1 0.370131 0.301664 0.22960  -0.197341990741
 F1 0.870142 0.301664 0.22960  -0.197341990741
 F1 0.400202 0.187171 0.18436  -0.197341990741
 F1 0.900214 0.187172 0.18436  -0.197341990741
 F1 0.477847 0.253183 0.15425  -0.197341990741
 F1 0.977858 0.253183 0.15425  -0.197341990741
 F1 0.129889 0.770385 0.69830  -0.197341990741
 F1 0.629901 0.770385 0.69830  -0.197341990741
 F1 0.099804 0.815621 0.8127  -0.197341990741
 F1 0.599815 0.815621 0.8127  -0.197341990741
 F1 0.022171 0.84573 0.74679  -0.197341990741
 F1 0.522182 0.84573 0.74679  -0.197341990741
 F1 0.296538 0.301679 0.07205  -0.197341990741
 F1 0.79655 0.301679 0.07205  -0.197341990741
 F1 0.266481 0.187206 0.00282  -0.197341990741
 F1 0.766492 0.187206 0.00282  -0.197341990741
 F1 0.188844 0.253195 0.09892  -0.197341990741
 F1 0.688856 0.253195 0.09892  -0.197341990741
 F1 0.463217 0.927931 0.22961  -0.197341990741
 F1 0.963228 0.92793 0.22961  -0.197341990741
 F1 0.433153 0.99718 0.18436  -0.197341990741
 F1 0.933164 0.99718 0.18436  -0.197341990741
 F1 0.355507 0.901095 0.15430  -0.197341990741
 F1 0.855518 0.901095 0.15430  -0.197341990741
 F1 0.129871 0.229599 0.30165  -0.197341990741
 F1 0.629883 0.229599 0.30165  -0.197341990741
 F1 0.099814 0.184355 0.18716  -0.197341990741
 F1 0.599825 0.184355 0.18716  -0.197341990741
 F1 0.022179 0.154261 0.25318  -0.197341990741
 F1 0.52219 0.15426 0.25318  -0.197341990741
 F1 0.296545 0.698309 0.92791  -0.197341990741
 F1 0.796556 0.698309 0.92791  -0.197341990741
 F1 0.266477 0.812784 0.99715  -0.197341990741
 F1 0.766488 0.812783 0.99715  -0.197341990741
 F1 0.188842 0.746794 0.90107  -0.197341990741
 F1 0.688853 0.746794 0.90107  -0.197341990741
 F1 0.46323 0.072076 0.77035  -0.197341990741
 F1 0.963241 0.072076 0.77035  -0.197341990741
 F1 0.433149 0.002817 0.81559  -0.197341990741
 F1 0.93316 0.002817 0.81559  -0.197341990741
 F1 0.355506 0.098909 0.84568  -0.197341990741
 F1 0.855518 0.098909 0.84568  -0.197341990741
