#======================================================================

# CRYSTAL DATA

#----------------------------------------------------------------------

data_VESTA_phase_1


_pd_phase_name                         MOF
_cell_length_a                         18.42500
_cell_length_b                         18.43200
_cell_length_c                         18.43300
_cell_angle_alpha                      60.13500
_cell_angle_beta                       60.15800
_cell_angle_gamma                      60.15700
_symmetry_space_group_name_H-M         "P 1"
_symmetry_Int_Tables_number            1

loop_
_symmetry_equiv_pos_as_xyz
   "x, y, z"

loop_
   _atom_site_label
   _atom_site_fract_x
   _atom_site_fract_y
   _atom_site_fract_z
 _atom_site_charge
 Zn1 0.206602 0.380498 0.20674  1.17112
 Zn1 0.380461 0.206635 0.20662  1.17112
 Zn1 0.206425 0.206339 0.20633  1.17112
 Zn1 0.206602 0.206752 0.38048  1.17112
 Zn1 0.619558 0.793373 0.79335  1.17112
 Zn1 0.793417 0.61951 0.79323  1.17112
 Zn1 0.793595 0.793669 0.79364  1.17112
 Zn1 0.793418 0.793256 0.619  1.17112
 H1 0.048218 0.568068 0.04860  0.117095
 H1 0.568097 0.04794 0.33564  0.117095
 H1 0.048058 0.335673 0.04753  0.117095
 H1 0.335638 0.04831 0.5681  0.117095
 H1 0.04805 0.047538 0.33566  0.117095
 H1 0.568095 0.335657 0.0479  0.117095
 H1 0.048227 0.048594 0.56804  0.117095
 H1 0.335636 0.568199 0.0483  0.117095
 H1 0.048142 0.335652 0.56816  0.117095
 H1 0.568129 0.048373 0.04837  0.117095
 H1 0.048139 0.568197 0.33565  0.117095
 H1 0.335641 0.047759 0.04777  0.117095
 H1 0.43189 0.951634 0.95160  0.117095
 H1 0.951878 0.43181 0.66433  0.117095
 H1 0.664379 0.952249 0.95221  0.117095
 H1 0.951875 0.664356 0.43181  0.117095
 H1 0.951969 0.952471 0.66431  0.117095
 H1 0.664383 0.431809 0.95166  0.117095
 H1 0.951792 0.951415 0.43194  0.117095
 H1 0.431925 0.664351 0.95204  0.117095
 H1 0.664382 0.951698 0.43181  0.117095
 H1 0.951799 0.43194 0.95138  0.117095
 H1 0.431923 0.952068 0.66433  0.117095
 H1 0.951959 0.664335 0.95244  0.117095
 C1 0.026713 0.539017 0.0269  -0.0577033333333
 C1 0.539056 0.026547 0.40764  -0.0577033333333
 C1 0.026624 0.407665 0.02632  -0.0577033333333
 C1 0.407642 0.026761 0.53908  -0.0577033333333
 C1 0.026619 0.026325 0.40765  -0.0577033333333
 C1 0.539054 0.407655 0.02654  -0.0577033333333
 C1 0.026718 0.026923 0.53899  -0.0577033333333
 C1 0.40764 0.539107 0.02676  -0.0577033333333
 C1 0.026675 0.407649 0.53907  -0.0577033333333
 C1 0.539039 0.026806 0.02680  -0.0577033333333
 C1 0.026674 0.5391 0.40764  -0.0577033333333
 C1 0.407645 0.026463 0.02646  -0.0577033333333
 C1 0.460981 0.973205 0.97317  -0.0577033333333
 C1 0.973345 0.460907 0.59233  -0.0577033333333
 C1 0.592374 0.973548 0.97351  -0.0577033333333
 C1 0.973344 0.592358 0.46090  -0.0577033333333
 C1 0.973401 0.973683 0.59233  -0.0577033333333
 C1 0.59238 0.460901 0.97321  -0.0577033333333
 C1 0.973302 0.973084 0.46098  -0.0577033333333
 C1 0.460965 0.592353 0.97343  -0.0577033333333
 C1 0.592378 0.973247 0.46089  -0.0577033333333
 C1 0.973309 0.460991 0.97304  -0.0577033333333
 C1 0.460964 0.973462 0.59234  -0.0577033333333
 C1 0.973399 0.592343 0.97365  -0.0577033333333
 C2 0.111014 0.388968 0.11094  0.727276666667
 C3 0.053673 0.446324 0.05361  -0.113575
 C2 0.389022 0.111139 0.38911  0.727276666667
 C3 0.446362 0.053673 0.44640  -0.113575
 C2 0.111011 0.110947 0.38895  0.727276666667
 C3 0.053675 0.053607 0.44630  -0.113575
 C2 0.38902 0.389127 0.1111  0.727276666667
 C3 0.44636 0.446419 0.0536  -0.113575
 C2 0.111121 0.389123 0.38910  0.727276666667
 C3 0.05369 0.446409 0.44639  -0.113575
 C2 0.388975 0.110938 0.11095  0.727276666667
 C3 0.446322 0.053622 0.05363  -0.113575
 C2 0.611044 0.889067 0.88903  0.727276666667
 C3 0.553698 0.94638 0.94635  -0.113575
 C2 0.888895 0.610884 0.61087  0.727276666667
 C3 0.946324 0.553598 0.55358  -0.113575
 C2 0.889007 0.889062 0.61102  0.727276666667
 C3 0.946342 0.946403 0.55367  -0.113575
 C2 0.610999 0.61088 0.88884  0.727276666667
 C3 0.55366 0.553588 0.94630  -0.113575
 C2 0.610998 0.88887 0.6108  0.727276666667
 C3 0.553659 0.946336 0.5535  -0.113575
 C2 0.889001 0.61104 0.8890  0.727276666667
 C3 0.946338 0.553684 0.94637  -0.113575
 O1 0.249973 0.250026 0.25001  -1.30723
 O1 0.750046 0.749982 0.74996  -1.30723
 O2 0.133194 0.4286 0.13318  -0.64768
 O2 0.428598 0.133304 0.30532  -0.64768
 O2 0.133023 0.305163 0.13291  -0.64768
 O2 0.30523 0.133287 0.42871  -0.64768
 O2 0.133013 0.132921 0.30515  -0.64768
 O2 0.428597 0.305339 0.133  -0.64768
 O2 0.1332 0.133183 0.42858  -0.64768
 O2 0.305228 0.428739 0.13328  -0.64768
 O2 0.133275 0.305331 0.42870  -0.64768
 O2 0.428623 0.133159 0.13315  -0.64768
 O2 0.133277 0.42873 0.30531  -0.64768
 O2 0.30515 0.132926 0.13293  -0.64768
 O2 0.571396 0.866852 0.86682  -0.64768
 O2 0.866744 0.571277 0.69466  -0.64768
 O2 0.694869 0.867085 0.86704  -0.64768
 O2 0.866745 0.694677 0.57127  -0.64768
 O2 0.867007 0.867086 0.69482  -0.64768
 O2 0.694791 0.571269 0.86669  -0.64768
 O2 0.866822 0.866823 0.571  -0.64768
 O2 0.571423 0.694669 0.8666  -0.64768
 O2 0.69479 0.866723 0.57126  -0.64768
 O2 0.866829 0.571408 0.86678  -0.64768
 O2 0.571423 0.866703 0.69465  -0.64768
 O2 0.867 0.694845 0.86706  -0.64768
