#======================================================================

# CRYSTAL DATA

#----------------------------------------------------------------------

data_VESTA_phase_1


_pd_phase_name                         MOF
_cell_length_a                         18.42000
_cell_length_b                         18.42800
_cell_length_c                         18.43000
_cell_angle_alpha                      60.16900
_cell_angle_beta                       60.18200
_cell_angle_gamma                      60.18000
_symmetry_space_group_name_H-M         "P 1"
_symmetry_Int_Tables_number            1

loop_
_symmetry_equiv_pos_as_xyz
   "x, y, z"

loop_
   _atom_site_label
   _atom_site_fract_x
   _atom_site_fract_y
   _atom_site_fract_z
 _atom_site_charge
 Zn1 0.206626 0.380355 0.20677  1.14573943396
 Zn1 0.380427 0.206621 0.20663  1.14573943396
 Zn1 0.206334 0.20621 0.20622  1.14573943396
 Zn1 0.206634 0.206774 0.38034  1.14573943396
 Zn1 0.619591 0.793393 0.79334  1.14573943396
 Zn1 0.793393 0.61966 0.793  1.14573943396
 Zn1 0.793685 0.793805 0.79375  1.14573943396
 Zn1 0.793383 0.793241 0.61963  1.14573943396
 H1 0.048641 0.56773 0.04860  0.117529433962
 H1 0.568157 0.048319 0.33569  0.117529433962
 H1 0.047557 0.335712 0.04760  0.117529433962
 H1 0.335639 0.048351 0.56808  0.117529433962
 H1 0.047552 0.047612 0.33571  0.117529433962
 H1 0.568168 0.335686 0.04830  0.117529433962
 H1 0.048627 0.048633 0.56770  0.117529433962
 H1 0.335639 0.568109 0.04833  0.117529433962
 H1 0.04828 0.335687 0.56811  0.117529433962
 H1 0.567916 0.048541 0.04852  0.117529433962
 H1 0.048259 0.56816 0.33568  0.117529433962
 H1 0.335656 0.047638 0.04762  0.117529433962
 H1 0.432104 0.951479 0.95144  0.117529433962
 H1 0.951752 0.431856 0.66428  0.117529433962
 H1 0.664363 0.952382 0.95234  0.117529433962
 H1 0.951732 0.664329 0.43185  0.117529433962
 H1 0.952461 0.952409 0.66425  0.117529433962
 H1 0.664379 0.431905 0.9516  0.117529433962
 H1 0.951385 0.951387 0.43227  0.117529433962
 H1 0.431851 0.664328 0.95166  0.117529433962
 H1 0.664377 0.951663 0.43189  0.117529433962
 H1 0.951368 0.432285 0.95138  0.117529433962
 H1 0.431859 0.951696 0.66428  0.117529433962
 H1 0.952453 0.664302 0.95238  0.117529433962
 C1 0.026945 0.538832 0.02692  -0.0707905660377
 C1 0.539081 0.026757 0.40766  -0.0707905660377
 C1 0.026338 0.407682 0.02637  -0.0707905660377
 C1 0.407644 0.026777 0.53902  -0.0707905660377
 C1 0.026341 0.026369 0.40767  -0.0707905660377
 C1 0.539087 0.407669 0.02675  -0.0707905660377
 C1 0.026942 0.026939 0.53881  -0.0707905660377
 C1 0.407645 0.539045 0.0267  -0.0707905660377
 C1 0.026737 0.407671 0.53904  -0.0707905660377
 C1 0.538942 0.02689 0.0268  -0.0707905660377
 C1 0.026726 0.539077 0.40766  -0.0707905660377
 C1 0.407654 0.026387 0.02637  -0.0707905660377
 C1 0.461078 0.97313 0.97309  -0.0707905660377
 C1 0.973286 0.460939 0.59231  -0.0707905660377
 C1 0.592365 0.973633 0.97359  -0.0707905660377
 C1 0.973275 0.592344 0.46093  -0.0707905660377
 C1 0.973672 0.973651 0.59229  -0.0707905660377
 C1 0.592374 0.46097 0.97320  -0.0707905660377
 C1 0.973071 0.973082 0.46116  -0.0707905660377
 C1 0.460932 0.592345 0.97321  -0.0707905660377
 C1 0.592372 0.973237 0.4609  -0.0707905660377
 C1 0.973066 0.461182 0.97305  -0.0707905660377
 C1 0.460935 0.973258 0.59231  -0.0707905660377
 C1 0.973672 0.592332 0.97361  -0.0707905660377
 C2 0.110968 0.388708 0.1109  0.721489433962
 C3 0.05363 0.446171 0.0536  -0.102620566038
 C2 0.389059 0.111315 0.38904  0.721489433962
 C3 0.44638 0.053856 0.44636  -0.102620566038
 C2 0.11096 0.110968 0.38870  0.721489433962
 C3 0.053624 0.053647 0.44616  -0.102620566038
 C2 0.389067 0.389044 0.11131  0.721489433962
 C3 0.446384 0.446372 0.0538  -0.102620566038
 C2 0.111216 0.389099 0.38908  0.721489433962
 C3 0.053796 0.446401 0.44638  -0.102620566038
 C2 0.388828 0.110913 0.11092  0.721489433962
 C3 0.446244 0.053615 0.05361  -0.102620566038
 C2 0.611191 0.889105 0.88904  0.721489433962
 C3 0.553776 0.946406 0.94636  -0.102620566038
 C2 0.888799 0.610917 0.61089  0.721489433962
 C3 0.946215 0.553615 0.55359  -0.102620566038
 C2 0.889054 0.88905 0.61126  0.721489433962
 C3 0.946388 0.946373 0.55381  -0.102620566038
 C2 0.610952 0.61097 0.88866  0.721489433962
 C3 0.553634 0.553643 0.94612  -0.102620566038
 C2 0.610957 0.8887 0.61093  0.721489433962
 C3 0.553636 0.946159 0.55361  -0.102620566038
 C2 0.889045 0.611306 0.88902  0.721489433962
 C3 0.946379 0.553843 0.94634  -0.102620566038
 O1 0.249944 0.249919 0.24992  -1.29511056604
 O1 0.750074 0.750095 0.75005  -1.29511056604
 O2 0.133149 0.42824 0.13335  -0.630160566038
 O2 0.428651 0.133331 0.30528  -0.630160566038
 O2 0.133002 0.304936 0.13273  -0.630160566038
 O2 0.305262 0.133581 0.42861  -0.630160566038
 O2 0.132996 0.13274 0.30494  -0.630160566038
 O2 0.428664 0.305272 0.13333  -0.630160566038
 O2 0.133145 0.133364 0.42823  -0.630160566038
 O2 0.305268 0.428615 0.13358  -0.630160566038
 O2 0.133345 0.305322 0.42865  -0.630160566038
 O2 0.428407 0.133185 0.13319  -0.630160566038
 O2 0.133346 0.428677 0.30531  -0.630160566038
 O2 0.305022 0.132829 0.13284  -0.630160566038
 O2 0.571612 0.86683 0.86678  -0.630160566038
 O2 0.86667 0.571338 0.69466  -0.630160566038
 O2 0.694998 0.867187 0.86712  -0.630160566038
 O2 0.866672 0.694693 0.57131  -0.630160566038
 O2 0.867021 0.867276 0.69502  -0.630160566038
 O2 0.69475 0.5714 0.8663  -0.630160566038
 O2 0.866869 0.866654 0.5717  -0.630160566038
 O2 0.571354 0.694743 0.86664  -0.630160566038
 O2 0.694754 0.866432 0.57136  -0.630160566038
 O2 0.866868 0.571774 0.86662  -0.630160566038
 O2 0.571365 0.866685 0.69469  -0.630160566038
 O2 0.867015 0.695079 0.86724  -0.630160566038
