#======================================================================

# CRYSTAL DATA

#----------------------------------------------------------------------

data_VESTA_phase_1


_pd_phase_name                         MOF
_cell_length_a                         20.75000
_cell_length_b                         25.12800
_cell_length_c                         20.21800
_cell_angle_alpha                      90.02400
_cell_angle_beta                       89.98800
_cell_angle_gamma                      90.03600
_symmetry_space_group_name_H-M         "P 1"
_symmetry_Int_Tables_number            1

loop_
_symmetry_equiv_pos_as_xyz
   "x, y, z"

loop_
   _atom_site_label
   _atom_site_fract_x
   _atom_site_fract_y
   _atom_site_fract_z
 _atom_site_charge
 Zn1 0.466286 0.303434 0.01119  1.10552892857
 Zn1 0.466284 0.803443 0.01119  1.10552892857
 Zn1 0.966286 0.303434 0.01119  1.10552892857
 Zn1 0.966284 0.803443 0.01119  1.10552892857
 Zn2 0.314149 0.33825 0.01123  1.07670892857
 Zn2 0.314143 0.838257 0.01123  1.07670892857
 Zn2 0.814149 0.33825 0.01123  1.07670892857
 Zn2 0.814143 0.838257 0.01123  1.07670892857
 Zn1 0.283724 0.19656 0.51119  1.10552892857
 Zn1 0.283721 0.696567 0.51119  1.10552892857
 Zn1 0.783724 0.19656 0.51119  1.10552892857
 Zn1 0.783721 0.696567 0.51119  1.10552892857
 Zn2 0.435837 0.161843 0.51111  1.07670892857
 Zn2 0.435833 0.66185 0.51111  1.07670892857
 Zn2 0.935837 0.161843 0.51111  1.07670892857
 Zn2 0.935833 0.66185 0.51111  1.07670892857
 Zn1 0.033653 0.053456 0.48881  1.10552892857
 Zn1 0.03365 0.553462 0.48881  1.10552892857
 Zn1 0.533653 0.053456 0.48881  1.10552892857
 Zn1 0.53365 0.553462 0.48881  1.10552892857
 Zn2 0.185814 0.088161 0.488  1.07670892857
 Zn2 0.18581 0.588169 0.48890  1.07670892857
 Zn2 0.685815 0.088161 0.488  1.07670892857
 Zn2 0.68581 0.588169 0.48890  1.07670892857
 Zn1 0.216346 0.446544 0.98889  1.10552892857
 Zn1 0.216339 0.946563 0.98888  1.10552892857
 Zn1 0.716346 0.446544 0.98889  1.10552892857
 Zn1 0.716339 0.946563 0.98888  1.10552892857
 Zn2 0.064168 0.41181 0.98887  1.07670892857
 Zn2 0.064164 0.911824 0.98887  1.07670892857
 Zn2 0.564168 0.41181 0.98887  1.07670892857
 Zn2 0.564165 0.911824 0.98887  1.07670892857
 H1 0.475298 0.234841 0.82313  0.109761428571
 H1 0.4753 0.734867 0.8231  0.109761428571
 H1 0.975299 0.234841 0.82313  0.109761428571
 H1 0.9753 0.734867 0.8231  0.109761428571
 H1 0.279953 0.291037 0.81866  0.109761428571
 H1 0.280009 0.79119 0.81860  0.109761428571
 H1 0.779957 0.291047 0.8186  0.109761428571
 H1 0.780009 0.79119 0.81860  0.109761428571
 H1 0.467526 0.210297 0.70296  0.109761428571
 H1 0.467527 0.710325 0.70294  0.109761428571
 H1 0.967526 0.210297 0.70296  0.109761428571
 H1 0.967527 0.710325 0.70294  0.109761428571
 H1 0.272318 0.26683 0.69859  0.109761428571
 H1 0.272375 0.766989 0.69853  0.109761428571
 H1 0.772321 0.266839 0.69858  0.109761428571
 H1 0.772376 0.766989 0.69853  0.109761428571
 H1 0.359602 0.485478 0.  0.109761428571
 H1 0.359595 0.985488 0.  0.109761428571
 H1 0.859602 0.485478 0.  0.109761428571
 H1 0.859595 0.985488 0.  0.109761428571
 H1 0.310885 0.48098 0.88732  0.109761428571
 H1 0.310878 0.980971 0.88730  0.109761428571
 H1 0.810886 0.480981 0.88732  0.109761428571
 H1 0.810878 0.98097 0.88730  0.109761428571
 H1 0.396932 0.479851 0.8833  0.109761428571
 H1 0.396924 0.979832 0.8833  0.109761428571
 H1 0.896933 0.479852 0.88336  0.109761428571
 H1 0.896924 0.979832 0.88332  0.109761428571
 H1 0.351643 0.419831 0.87230  0.109761428571
 H1 0.351627 0.919814 0.87229  0.109761428571
 H1 0.851643 0.419833 0.87230  0.109761428571
 H1 0.851628 0.919813 0.87229  0.109761428571
 H1 0.274603 0.265116 0.32314  0.109761428571
 H1 0.274617 0.765163 0.32315  0.109761428571
 H1 0.774603 0.265116 0.32314  0.109761428571
 H1 0.774617 0.765163 0.32315  0.109761428571
 H1 0.470092 0.209254 0.31867  0.109761428571
 H1 0.47007 0.709216 0.31865  0.109761428571
 H1 0.970092 0.209254 0.31867  0.109761428571
 H1 0.97007 0.709216 0.31865  0.109761428571
 H1 0.282387 0.289662 0.20299  0.109761428571
 H1 0.282402 0.789709 0.20300  0.109761428571
 H1 0.782387 0.289662 0.20299  0.109761428571
 H1 0.782402 0.78971 0.20300  0.109761428571
 H1 0.477738 0.233461 0.19862  0.109761428571
 H1 0.477715 0.73342 0.19860  0.109761428571
 H1 0.977738 0.23346 0.19862  0.109761428571
 H1 0.977716 0.733421 0.19860  0.109761428571
 H1 0.390766 0.014804 0.50002  0.109761428571
 H1 0.390762 0.514813 0.50003  0.109761428571
 H1 0.890766 0.014804 0.50002  0.109761428571
 H1 0.890763 0.514813 0.50003  0.109761428571
 H1 0.438557 0.01901 0.38616  0.109761428571
 H1 0.438547 0.519004 0.38617  0.109761428571
 H1 0.938558 0.019011 0.38616  0.109761428571
 H1 0.938548 0.519005 0.38617  0.109761428571
 H1 0.352457 0.019796 0.3829  0.109761428571
 H1 0.352447 0.519786 0.38292  0.109761428571
 H1 0.852458 0.019797 0.3829  0.109761428571
 H1 0.852447 0.519786 0.38292  0.109761428571
 H1 0.397345 0.079937 0.37112  0.109761428571
 H1 0.397329 0.579926 0.37112  0.109761428571
 H1 0.897346 0.079938 0.37112  0.109761428571
 H1 0.897329 0.579927 0.37112  0.109761428571
 H1 0.024389 0.4848 0.67707  0.109761428571
 H1 0.024276 0.985089 0.67718  0.109761428571
 H1 0.524389 0.4848 0.67707  0.109761428571
 H1 0.524276 0.985089 0.67718  0.109761428571
 H1 0.220009 0.040595 0.68108  0.109761428571
 H1 0.219934 0.540746 0.6811  0.109761428571
 H1 0.72001 0.040594 0.68108  0.109761428571
 H1 0.719935 0.540745 0.68113  0.109761428571
 H1 0.032404 0.460146 0.7971  0.109761428571
 H1 0.032294 0.960454 0.79728  0.109761428571
 H1 0.532404 0.460146 0.7971  0.109761428571
 H1 0.532294 0.960454 0.79728  0.109761428571
 H1 0.227902 0.016283 0.8010  0.109761428571
 H1 0.227826 0.516404 0.80112  0.109761428571
 H1 0.727902 0.016282 0.8010  0.109761428571
 H1 0.727827 0.516404 0.80112  0.109761428571
 H1 0.140931 0.235212 0.50001  0.109761428571
 H1 0.140926 0.735213 0.49993  0.109761428571
 H1 0.640931 0.235212 0.50001  0.109761428571
 H1 0.640926 0.735213 0.49993  0.109761428571
 H1 0.188832 0.230861 0.61383  0.109761428571
 H1 0.188825 0.730948 0.61376  0.109761428571
 H1 0.688833 0.230861 0.61383  0.109761428571
 H1 0.688825 0.730948 0.61376  0.109761428571
 H1 0.10273 0.230266 0.61715  0.109761428571
 H1 0.102722 0.730361 0.61707  0.109761428571
 H1 0.60273 0.230267 0.61715  0.109761428571
 H1 0.602722 0.73036 0.61707  0.109761428571
 H1 0.147338 0.170025 0.62887  0.109761428571
 H1 0.147324 0.670126 0.62887  0.109761428571
 H1 0.647338 0.170025 0.62887  0.109761428571
 H1 0.647324 0.670126 0.62887  0.109761428571
 H1 0.225397 0.015151 0.17695  0.109761428571
 H1 0.225355 0.51525 0.17691  0.109761428571
 H1 0.725398 0.01515 0.17695  0.109761428571
 H1 0.725355 0.515251 0.17691  0.109761428571
 H1 0.029863 0.45919 0.18126  0.109761428571
 H1 0.029827 0.95927 0.18124  0.109761428571
 H1 0.529863 0.459189 0.18126  0.109761428571
 H1 0.529827 0.95927 0.18124  0.109761428571
 H1 0.217571 0.039677 0.29713  0.109761428571
 H1 0.217531 0.539774 0.29709  0.109761428571
 H1 0.717571 0.039677 0.29713  0.109761428571
 H1 0.71753 0.539775 0.29709  0.109761428571
 H1 0.022173 0.483377 0.30135  0.109761428571
 H1 0.022134 0.983459 0.30132  0.109761428571
 H1 0.522173 0.483377 0.30135  0.109761428571
 H1 0.522134 0.983459 0.30132  0.109761428571
 H1 0.109138 0.264766 0.99985  0.109761428571
 H1 0.109129 0.764772 6e-0  0.109761428571
 H1 0.609139 0.264766 0.99985  0.109761428571
 H1 0.60913 0.764772 6e-0  0.109761428571
 H1 0.061052 0.269107 0.11360  0.109761428571
 H1 0.061037 0.769282 0.11374  0.109761428571
 H1 0.561052 0.269108 0.11360  0.109761428571
 H1 0.561037 0.769282 0.11374  0.109761428571
 H1 0.147145 0.269762 0.11705  0.109761428571
 H1 0.14713 0.769928 0.11720  0.109761428571
 H1 0.647145 0.269762 0.11705  0.109761428571
 H1 0.64713 0.769928 0.11720  0.109761428571
 H1 0.102455 0.329977 0.12874  0.109761428571
 H1 0.102452 0.830167 0.12875  0.109761428571
 H1 0.602455 0.329978 0.12874  0.109761428571
 H1 0.602452 0.830167 0.12875  0.109761428571
 C1 0.382709 0.279933 0.89918  0.705005595238
 C1 0.382718 0.779972 0.8991  0.705005595238
 C1 0.88271 0.279936 0.89918  0.705005595238
 C1 0.882718 0.779971 0.8991  0.705005595238
 C2 0.377999 0.264223 0.82790  -0.131901071429
 C2 0.378022 0.7643 0.82787  -0.131901071429
 C2 0.878 0.264227 0.82790  -0.131901071429
 C2 0.878022 0.7643 0.82787  -0.131901071429
 C3 0.431076 0.241555 0.79540  -0.0602710714286
 C3 0.431088 0.741607 0.79538  -0.0602710714286
 C3 0.931077 0.241556 0.79540  -0.0602710714286
 C3 0.931089 0.741607 0.79538  -0.0602710714286
 C3 0.320711 0.273353 0.79283  -0.0602710714286
 C3 0.320754 0.773476 0.79278  -0.0602710714286
 C3 0.820714 0.273359 0.79283  -0.0602710714286
 C3 0.820755 0.773476 0.79278  -0.0602710714286
 C3 0.42685 0.228079 0.72882  -0.0602710714286
 C3 0.426864 0.728136 0.72880  -0.0602710714286
 C3 0.926851 0.228082 0.72882  -0.0602710714286
 C3 0.926864 0.728136 0.72880  -0.0602710714286
 C3 0.316544 0.259955 0.72622  -0.0602710714286
 C3 0.31659 0.760084 0.72617  -0.0602710714286
 C3 0.816548 0.259963 0.72622  -0.0602710714286
 C3 0.81659 0.760085 0.72617  -0.0602710714286
 C2 0.369541 0.237154 0.69375  -0.131901071429
 C2 0.369566 0.737236 0.6937  -0.131901071429
 C2 0.869543 0.237158 0.69375  -0.131901071429
 C2 0.869566 0.737236 0.6937  -0.131901071429
 C1 0.364847 0.221103 0.62258  0.705005595238
 C1 0.364856 0.721143 0.62256  0.705005595238
 C1 0.864848 0.221103 0.62258  0.705005595238
 C1 0.864856 0.721143 0.62256  0.705005595238
 C1 0.419061 0.417365 0.99010  0.705005595238
 C1 0.419053 0.917371 0.990  0.705005595238
 C1 0.919061 0.417365 0.99010  0.705005595238
 C1 0.919053 0.917371 0.99009  0.705005595238
 C4 0.356783 0.447183 0.97401  0.166208928571
 C4 0.356775 0.947187 0.97400  0.166208928571
 C4 0.856783 0.447183 0.97401  0.166208928571
 C4 0.856775 0.947187 0.97400  0.166208928571
 C5 0.354065 0.457727 0.89936  -0.372671071429
 C5 0.354055 0.957715 0.8993  -0.372671071429
 C5 0.854065 0.457728 0.8993  -0.372671071429
 C5 0.854055 0.957714 0.89934  -0.372671071429
 C1 0.367234 0.220143 0.39916  0.705005595238
 C1 0.36723 0.720149 0.39916  0.705005595238
 C1 0.867234 0.220143 0.39916  0.705005595238
 C1 0.86723 0.720148 0.39916  0.705005595238
 C2 0.371965 0.235889 0.32791  -0.131901071429
 C2 0.371961 0.735894 0.32791  -0.131901071429
 C2 0.871965 0.235889 0.32791  -0.131901071429
 C2 0.871962 0.735894 0.32791  -0.131901071429
 C3 0.318859 0.258475 0.29541  -0.0602710714286
 C3 0.318866 0.758503 0.29542  -0.0602710714286
 C3 0.818859 0.258475 0.29541  -0.0602710714286
 C3 0.818866 0.758504 0.29542  -0.0602710714286
 C3 0.429305 0.226866 0.29284  -0.0602710714286
 C3 0.42929 0.726846 0.29283  -0.0602710714286
 C3 0.929305 0.226865 0.29284  -0.0602710714286
 C3 0.929291 0.726847 0.29283  -0.0602710714286
 C3 0.323091 0.271946 0.22885  -0.0602710714286
 C3 0.323098 0.771974 0.22885  -0.0602710714286
 C3 0.823091 0.271946 0.22885  -0.0602710714286
 C3 0.823098 0.771974 0.22885  -0.0602710714286
 C3 0.433475 0.240256 0.22625  -0.0602710714286
 C3 0.433461 0.740237 0.22624  -0.0602710714286
 C3 0.933475 0.240256 0.22625  -0.0602710714286
 C3 0.933461 0.740236 0.22624  -0.0602710714286
 C2 0.380439 0.262949 0.19377  -0.131901071429
 C2 0.380435 0.762954 0.19377  -0.131901071429
 C2 0.880439 0.262949 0.19377  -0.131901071429
 C2 0.880436 0.762954 0.19377  -0.131901071429
 C1 0.385135 0.278947 0.12260  0.705005595238
 C1 0.385132 0.778952 0.12259  0.705005595238
 C1 0.885135 0.278946 0.12260  0.705005595238
 C1 0.885133 0.778954 0.12259  0.705005595238
 C1 0.33096 0.082701 0.48971  0.705005595238
 C1 0.330956 0.582708 0.48972  0.705005595238
 C1 0.83096 0.082701 0.48971  0.705005595238
 C1 0.830956 0.582708 0.48972  0.705005595238
 C4 0.393196 0.053002 0.47301  0.166208928571
 C4 0.393191 0.553007 0.4730  0.166208928571
 C4 0.893196 0.053003 0.47301  0.166208928571
 C4 0.893191 0.553007 0.4730  0.166208928571
 C5 0.395329 0.042148 0.39841  -0.372671071429
 C5 0.395319 0.542142 0.39841  -0.372671071429
 C5 0.89533 0.042148 0.3984  -0.372671071429
 C5 0.895319 0.542142 0.39841  -0.372671071429
 C1 0.117011 0.029894 0.60088  0.705005595238
 C1 0.117017 0.529874 0.60086  0.705005595238
 C1 0.617011 0.029894 0.60088  0.705005595238
 C1 0.617017 0.529873 0.60086  0.705005595238
 C2 0.12177 0.01413 0.67212  -0.131901071429
 C2 0.121783 0.514075 0.67209  -0.131901071429
 C2 0.62177 0.01413 0.67212  -0.131901071429
 C2 0.621783 0.514075 0.67209  -0.131901071429
 C3 0.068714 0.491437 0.70468  -0.0602710714286
 C3 0.06864 0.991638 0.70476  -0.0602710714286
 C3 0.568714 0.491438 0.70468  -0.0602710714286
 C3 0.568641 0.991638 0.70476  -0.0602710714286
 C3 0.179227 0.023033 0.70703  -0.0602710714286
 C3 0.179192 0.523084 0.70704  -0.0602710714286
 C3 0.679228 0.023033 0.70703  -0.0602710714286
 C3 0.679192 0.523084 0.70704  -0.0602710714286
 C3 0.073072 0.477895 0.77121  -0.0602710714286
 C3 0.073 0.978108 0.77130  -0.0602710714286
 C3 0.573072 0.477895 0.77121  -0.0602710714286
 C3 0.573001 0.978108 0.77130  -0.0602710714286
 C3 0.183531 0.009578 0.77359  -0.0602710714286
 C3 0.183495 0.509613 0.77360  -0.0602710714286
 C3 0.683531 0.009578 0.77359  -0.0602710714286
 C3 0.683496 0.509612 0.77360  -0.0602710714286
 C2 0.130497 0.486865 0.8061  -0.131901071429
 C2 0.130478 0.986965 0.80621  -0.131901071429
 C2 0.630498 0.486865 0.8061  -0.131901071429
 C2 0.630478 0.986964 0.80621  -0.131901071429
 C1 0.135248 0.47081 0.87731  0.705005595238
 C1 0.135235 0.970902 0.87735  0.705005595238
 C1 0.635248 0.47081 0.87731  0.705005595238
 C1 0.635235 0.970901 0.87735  0.705005595238
 C1 0.081012 0.167306 0.51031  0.705005595238
 C1 0.081008 0.667316 0.51030  0.705005595238
 C1 0.581012 0.167306 0.51031  0.705005595238
 C1 0.581008 0.667316 0.51030  0.705005595238
 C4 0.143296 0.197002 0.52700  0.166208928571
 C4 0.143291 0.697024 0.52696  0.166208928571
 C4 0.643296 0.197002 0.52700  0.166208928571
 C4 0.643291 0.697024 0.52696  0.166208928571
 C5 0.145489 0.207826 0.60160  -0.372671071429
 C5 0.145481 0.707906 0.6015  -0.372671071429
 C5 0.645489 0.207826 0.60160  -0.372671071429
 C5 0.645481 0.707905 0.6015  -0.372671071429
 C1 0.132705 0.470191 0.10083  0.705005595238
 C1 0.132706 0.97019 0.10083  0.705005595238
 C1 0.632706 0.47019 0.10083  0.705005595238
 C1 0.632706 0.97019 0.10083  0.705005595238
 C2 0.127983 0.48593 0.17209  -0.131901071429
 C2 0.127982 0.985929 0.17210  -0.131901071429
 C2 0.627983 0.48593 0.17209  -0.131901071429
 C2 0.627983 0.985929 0.17210  -0.131901071429
 C3 0.181114 0.008505 0.20464  -0.0602710714286
 C3 0.181088 0.508566 0.20462  -0.0602710714286
 C3 0.681115 0.008505 0.20464  -0.0602710714286
 C3 0.681088 0.508566 0.20462  -0.0602710714286
 C3 0.070636 0.476844 0.20713  -0.0602710714286
 C3 0.070614 0.976889 0.20712  -0.0602710714286
 C3 0.570636 0.476844 0.20713  -0.0602710714286
 C3 0.570614 0.976889 0.20712  -0.0602710714286
 C3 0.176864 0.021959 0.27122  -0.0602710714286
 C3 0.176837 0.522023 0.27120  -0.0602710714286
 C3 0.676864 0.021959 0.27122  -0.0602710714286
 C3 0.676837 0.522023 0.27120  -0.0602710714286
 C3 0.066444 0.490223 0.27374  -0.0602710714286
 C3 0.066423 0.990265 0.27373  -0.0602710714286
 C3 0.566445 0.490222 0.27374  -0.0602710714286
 C3 0.566423 0.990265 0.27373  -0.0602710714286
 C2 0.119484 0.01295 0.30625  -0.131901071429
 C2 0.119479 0.512965 0.30624  -0.131901071429
 C2 0.619484 0.01295 0.30625  -0.131901071429
 C2 0.61948 0.512965 0.30624  -0.131901071429
 C1 0.114797 0.028947 0.37743  0.705005595238
 C1 0.114794 0.528955 0.37743  0.705005595238
 C1 0.614797 0.028947 0.37743  0.705005595238
 C1 0.614794 0.528956 0.37743  0.705005595238
 C1 0.169006 0.332689 0.01026  0.705005595238
 C1 0.169003 0.83271 0.0102  0.705005595238
 C1 0.669006 0.332689 0.01026  0.705005595238
 C1 0.669003 0.83271 0.0102  0.705005595238
 C4 0.106709 0.302979 0.02686  0.166208928571
 C4 0.106703 0.803023 0.02693  0.166208928571
 C4 0.60671 0.302979 0.02686  0.166208928571
 C4 0.606704 0.803023 0.02693  0.166208928571
 C5 0.104394 0.292171 0.10145  -0.372671071429
 C5 0.104385 0.792322 0.10155  -0.372671071429
 C5 0.604394 0.292171 0.10145  -0.372671071429
 C5 0.604385 0.792321 0.10155  -0.372671071429
 O1 0.333149 0.301116 0.92515  -0.616099071429
 O1 0.333147 0.801129 0.92514  -0.616099071429
 O1 0.833149 0.301116 0.92515  -0.616099071429
 O1 0.833148 0.801129 0.92514  -0.616099071429
 O1 0.436768 0.271157 0.92790  -0.616099071429
 O1 0.436769 0.771176 0.92789  -0.616099071429
 O1 0.936768 0.271157 0.92790  -0.616099071429
 O1 0.936769 0.771176 0.92789  -0.616099071429
 O1 0.311095 0.231027 0.59340  -0.616099071429
 O1 0.311103 0.73106 0.59338  -0.616099071429
 O1 0.811096 0.23103 0.593  -0.616099071429
 O1 0.811103 0.73106 0.59338  -0.616099071429
 O1 0.413728 0.198844 0.59708  -0.616099071429
 O1 0.413728 0.698861 0.59707  -0.616099071429
 O1 0.913729 0.198845 0.5970  -0.616099071429
 O1 0.913728 0.698861 0.59707  -0.616099071429
 O2 0.412036 0.370448 0.01423  -0.691751071429
 O2 0.412028 0.870456 0.01423  -0.691751071429
 O2 0.912037 0.370448 0.01423  -0.691751071429
 O2 0.912028 0.870456 0.01423  -0.691751071429
 O1 0.472009 0.439608 0.97792  -0.616099071429
 O1 0.472002 0.939615 0.97791  -0.616099071429
 O1 0.97201 0.439608 0.97792  -0.616099071429
 O1 0.972002 0.939615 0.97791  -0.616099071429
 O2 0.302314 0.417772 0.99679  -0.691751071429
 O2 0.302304 0.917782 0.99678  -0.691751071429
 O2 0.802314 0.417772 0.99679  -0.691751071429
 O2 0.802304 0.917782 0.99678  -0.691751071429
 O1 0.416808 0.199019 0.42511  -0.616099071429
 O1 0.416803 0.699024 0.42511  -0.616099071429
 O1 0.916808 0.199018 0.42511  -0.616099071429
 O1 0.916804 0.699025 0.42511  -0.616099071429
 O1 0.313128 0.22883 0.42788  -0.616099071429
 O1 0.313124 0.728836 0.42788  -0.616099071429
 O1 0.813128 0.22883 0.42788  -0.616099071429
 O1 0.813125 0.728837 0.42788  -0.616099071429
 O1 0.438902 0.269016 0.09340  -0.616099071429
 O1 0.438899 0.769022 0.09340  -0.616099071429
 O1 0.938903 0.269017 0.09340  -0.616099071429
 O1 0.938899 0.769022 0.09340  -0.616099071429
 O1 0.336243 0.301146 0.09709  -0.616099071429
 O1 0.336241 0.801154 0.09709  -0.616099071429
 O1 0.836244 0.301146 0.09709  -0.616099071429
 O1 0.836241 0.801153 0.09709  -0.616099071429
 O2 0.338019 0.129531 0.51416  -0.691751071429
 O2 0.338016 0.629538 0.51416  -0.691751071429
 O2 0.83802 0.129531 0.51416  -0.691751071429
 O2 0.838016 0.629538 0.51416  -0.691751071429
 O1 0.277981 0.0604 0.47782  -0.616099071429
 O1 0.277977 0.560408 0.47782  -0.616099071429
 O1 0.777982 0.0604 0.47782  -0.616099071429
 O1 0.777977 0.560408 0.47782  -0.616099071429
 O2 0.447785 0.082645 0.49495  -0.691751071429
 O2 0.447782 0.582653 0.49495  -0.691751071429
 O2 0.947785 0.082645 0.49495  -0.691751071429
 O2 0.947782 0.582653 0.49495  -0.691751071429
 O1 0.166648 0.050955 0.57488  -0.616099071429
 O1 0.166645 0.550961 0.57488  -0.616099071429
 O1 0.666649 0.050955 0.57488  -0.616099071429
 O1 0.666646 0.550962 0.57488  -0.616099071429
 O1 0.062842 0.021289 0.57223  -0.616099071429
 O1 0.062851 0.521269 0.57221  -0.616099071429
 O1 0.562843 0.021288 0.57223  -0.616099071429
 O1 0.562851 0.521269 0.57221  -0.616099071429
 O1 0.189145 0.480509 0.90637  -0.616099071429
 O1 0.189105 0.980658 0.9064  -0.616099071429
 O1 0.689146 0.480508 0.90637  -0.616099071429
 O1 0.689105 0.980658 0.9064  -0.616099071429
 O1 0.086254 0.448787 0.9029  -0.616099071429
 O1 0.08627 0.948808 0.90294  -0.616099071429
 O1 0.586255 0.448787 0.9029  -0.616099071429
 O1 0.58627 0.948809 0.90294  -0.616099071429
 O2 0.088032 0.120483 0.4858  -0.691751071429
 O2 0.088029 0.620489 0.48585  -0.691751071429
 O2 0.588032 0.120483 0.4858  -0.691751071429
 O2 0.588029 0.620489 0.48585  -0.691751071429
 O1 0.028056 0.189595 0.52221  -0.616099071429
 O1 0.028051 0.689603 0.52221  -0.616099071429
 O1 0.528056 0.189595 0.52221  -0.616099071429
 O1 0.528051 0.689603 0.52221  -0.616099071429
 O2 0.197838 0.167366 0.50500  -0.691751071429
 O2 0.197835 0.667373 0.50500  -0.691751071429
 O2 0.697838 0.167366 0.50500  -0.691751071429
 O2 0.697836 0.667373 0.50500  -0.691751071429
 O1 0.083134 0.448985 0.07489  -0.616099071429
 O1 0.08313 0.948995 0.07489  -0.616099071429
 O1 0.583134 0.448986 0.0748  -0.616099071429
 O1 0.58313 0.948995 0.07489  -0.616099071429
 O1 0.186768 0.478957 0.07208  -0.616099071429
 O1 0.186768 0.978958 0.07208  -0.616099071429
 O1 0.686768 0.478958 0.07208  -0.616099071429
 O1 0.686768 0.978958 0.07208  -0.616099071429
 O1 0.061042 0.01898 0.40664  -0.616099071429
 O1 0.061037 0.518991 0.40663  -0.616099071429
 O1 0.561043 0.01898 0.40664  -0.616099071429
 O1 0.561038 0.51899 0.40663  -0.616099071429
 O1 0.163714 0.051178 0.40294  -0.616099071429
 O1 0.163709 0.55119 0.40294  -0.616099071429
 O1 0.663714 0.051178 0.40294  -0.616099071429
 O1 0.663709 0.55119 0.40294  -0.616099071429
 O2 0.162007 0.379503 0.98583  -0.691751071429
 O2 0.16201 0.879515 0.98581  -0.691751071429
 O2 0.662008 0.379503 0.98583  -0.691751071429
 O2 0.66201 0.879515 0.98581  -0.691751071429
 O1 0.221953 0.310411 0.02219  -0.616099071429
 O1 0.221947 0.810423 0.02220  -0.616099071429
 O1 0.721954 0.310411 0.02219  -0.616099071429
 O1 0.721947 0.810423 0.02220  -0.616099071429
 O2 0.052184 0.332584 0.00481  -0.691751071429
 O2 0.05218 0.832601 0.00482  -0.691751071429
 O2 0.552184 0.332584 0.00481  -0.691751071429
 O2 0.55218 0.832601 0.00482  -0.691751071429
