#======================================================================

# CRYSTAL DATA

#----------------------------------------------------------------------

data_VESTA_phase_1


_pd_phase_name                         MOF
_cell_length_a                         15.13500
_cell_length_b                         14.35200
_cell_length_c                         21.10600
_cell_angle_alpha                      89.95200
_cell_angle_beta                       90.00300
_cell_angle_gamma                      90.05300
_symmetry_space_group_name_H-M         "P 1"
_symmetry_Int_Tables_number            1

loop_
_symmetry_equiv_pos_as_xyz
   "x, y, z"

loop_
   _atom_site_label
   _atom_site_fract_x
   _atom_site_fract_y
   _atom_site_fract_z
 _atom_site_charge
 Cd1 0.249588 0.60229 0.43405  0.97492137931
 Cd1 0.749577 0.602292 0.43404  0.97492137931
 Cd1 0.250394 0.39773 0.56596  0.97492137931
 Cd1 0.750385 0.397711 0.56597  0.97492137931
 Cd1 0.250013 0.101215 0.06592  0.97492137931
 Cd1 0.749941 0.101196 0.06593  0.97492137931
 Cd1 0.249568 0.898788 0.93409  0.97492137931
 Cd1 0.749557 0.898835 0.93408  0.97492137931
 H1 0.084076 0.470701 0.3860  0.108952807882
 H1 0.58406 0.470719 0.38607  0.108952807882
 H1 0.083872 0.720278 0.48547  0.108952807882
 H1 0.583863 0.720266 0.48549  0.108952807882
 H1 0.08442 0.529653 0.61418  0.108952807882
 H1 0.584414 0.529611 0.61418  0.108952807882
 H1 0.085091 0.279861 0.51496  0.108952807882
 H1 0.585067 0.279861 0.51491  0.108952807882
 H1 0.415922 0.968704 0.11372  0.108952807882
 H1 0.915923 0.968887 0.11367  0.108952807882
 H1 0.415329 0.220178 0.01619  0.108952807882
 H1 0.915339 0.220312 0.0160  0.108952807882
 H1 0.414975 0.030806 0.88653  0.108952807882
 H1 0.914979 0.030845 0.88654  0.108952807882
 H1 0.415497 0.779517 0.98423  0.108952807882
 H1 0.915451 0.779509 0.98419  0.108952807882
 H1 0.415916 0.529291 0.61394  0.108952807882
 H1 0.915891 0.52932 0.61393  0.108952807882
 H1 0.416107 0.279747 0.51451  0.108952807882
 H1 0.916101 0.279735 0.51456  0.108952807882
 H1 0.415562 0.470393 0.38582  0.108952807882
 H1 0.915548 0.470377 0.38583  0.108952807882
 H1 0.414904 0.720149 0.48509  0.108952807882
 H1 0.914882 0.720161 0.48506  0.108952807882
 H1 0.083465 0.031292 0.88624  0.108952807882
 H1 0.583416 0.031292 0.88621  0.108952807882
 H1 0.084461 0.7799 0.98384  0.108952807882
 H1 0.584477 0.779942 0.98387  0.108952807882
 H1 0.084399 0.969206 0.1135  0.108952807882
 H1 0.584374 0.969038 0.11360  0.108952807882
 H1 0.084333 0.220407 0.01574  0.108952807882
 H1 0.584327 0.220289 0.01588  0.108952807882
 H1 0.248723 0.662974 0.09269  0.108952807882
 H1 0.748741 0.662972 0.09267  0.108952807882
 H1 0.249706 0.934609 0.18010  0.108952807882
 H1 0.749704 0.934606 0.1800  0.108952807882
 H1 0.250466 0.859693 0.2860  0.108952807882
 H1 0.750448 0.859691 0.28603  0.108952807882
 H1 0.250801 0.336994 0.90733  0.108952807882
 H1 0.750239 0.337038 0.90734  0.108952807882
 H1 0.250146 0.065381 0.81989  0.108952807882
 H1 0.750022 0.065395 0.8199  0.108952807882
 H1 0.249599 0.140325 0.71395  0.108952807882
 H1 0.749681 0.140301 0.71399  0.108952807882
 H1 0.249929 0.163881 0.40748  0.108952807882
 H1 0.749965 0.163883 0.4074  0.108952807882
 H1 0.249708 0.43455 0.31845  0.108952807882
 H1 0.749682 0.434543 0.31844  0.108952807882
 H1 0.250065 0.358477 0.21291  0.108952807882
 H1 0.750073 0.358458 0.21290  0.108952807882
 H1 0.250062 0.836129 0.59253  0.108952807882
 H1 0.749965 0.836128 0.59253  0.108952807882
 H1 0.250321 0.56546 0.68156  0.108952807882
 H1 0.750277 0.565469 0.68157  0.108952807882
 H1 0.24998 0.641536 0.78711  0.108952807882
 H1 0.749921 0.641555 0.78711  0.108952807882
 C1 0.04572 0.525788 0.40857  0.0878613793103
 C1 0.545705 0.525799 0.40857  0.0878613793103
 C1 0.045481 0.664478 0.4636  0.0878613793103
 C1 0.545471 0.664473 0.46368  0.0878613793103
 C1 0.046334 0.474388 0.59157  0.0878613793103
 C1 0.546324 0.474359 0.59156  0.0878613793103
 C1 0.04656 0.335659 0.53654  0.0878613793103
 C1 0.546541 0.335655 0.5365  0.0878613793103
 C1 0.454017 0.024364 0.09152  0.0878613793103
 C1 0.954012 0.024525 0.09144  0.0878613793103
 C1 0.453853 0.164024 0.03743  0.0878613793103
 C1 0.953844 0.164141 0.03730  0.0878613793103
 C1 0.453371 0.975378 0.90865  0.0878613793103
 C1 0.953368 0.975397 0.90865  0.0878613793103
 C1 0.45378 0.835787 0.96283  0.0878613793103
 C1 0.953747 0.835779 0.962  0.0878613793103
 C1 0.45427 0.474212 0.59144  0.0878613793103
 C1 0.954249 0.474238 0.59144  0.0878613793103
 C1 0.454501 0.335541 0.53632  0.0878613793103
 C1 0.95449 0.335543 0.53635  0.0878613793103
 C1 0.453651 0.525644 0.40845  0.0878613793103
 C1 0.953635 0.525634 0.40845  0.0878613793103
 C1 0.453431 0.664352 0.46350  0.0878613793103
 C1 0.953411 0.664358 0.46348  0.0878613793103
 C1 0.045449 0.975614 0.90849  0.0878613793103
 C1 0.54542 0.975615 0.90849  0.0878613793103
 C1 0.045821 0.835967 0.96260  0.0878613793103
 C1 0.545824 0.835994 0.96263  0.0878613793103
 C1 0.046094 0.024668 0.09135  0.0878613793103
 C1 0.546066 0.024505 0.09143  0.0878613793103
 C1 0.045921 0.164241 0.03716  0.0878613793103
 C1 0.545895 0.164123 0.03728  0.0878613793103
 C2 0.250099 0.71996 0.25050  -0.11586862069
 C2 0.750089 0.719959 0.2504  -0.11586862069
 C3 0.249638 0.666178 0.19503  0.0675913793103
 C3 0.749634 0.666175 0.19501  0.0675913793103
 C4 0.249131 0.706026 0.13512  -0.0773152873563
 C4 0.749142 0.706022 0.13511  -0.0773152873563
 C2 0.249188 0.803409 0.12917  -0.11586862069
 C2 0.749196 0.803404 0.12916  -0.11586862069
 C4 0.249704 0.858921 0.18382  -0.0773152873563
 C4 0.749703 0.858917 0.18380  -0.0773152873563
 C4 0.250144 0.817135 0.24343  -0.0773152873563
 C4 0.75013 0.817134 0.24341  -0.0773152873563
 C5 0.250111 0.678887 0.3160  0.67208637931
 C5 0.750101 0.678886 0.31602  0.67208637931
 C5 0.248745 0.844788 0.06399  0.67208637931
 C5 0.748746 0.844783 0.06397  0.67208637931
 C2 0.249898 0.280046 0.74951  -0.11586862069
 C2 0.749845 0.28004 0.74953  -0.11586862069
 C3 0.250265 0.33382 0.80499  0.0675913793103
 C3 0.750064 0.333825 0.80500  0.0675913793103
 C4 0.250533 0.293956 0.86489  -0.0773152873563
 C4 0.750142 0.293981 0.86491  -0.0773152873563
 C2 0.250414 0.196572 0.87083  -0.11586862069
 C2 0.75004 0.196599 0.87086  -0.11586862069
 C4 0.250136 0.141071 0.81618  -0.0773152873563
 C4 0.749983 0.141084 0.8162  -0.0773152873563
 C4 0.249858 0.182869 0.75657  -0.0773152873563
 C4 0.749803 0.182865 0.75661  -0.0773152873563
 C5 0.249882 0.321129 0.68398  0.67208637931
 C5 0.749923 0.321109 0.68399  0.67208637931
 C5 0.250445 0.155181 0.93601  0.67208637931
 C5 0.749963 0.155234 0.93605  0.67208637931
 C2 0.249882 0.219131 0.2493  -0.11586862069
 C2 0.749932 0.219115 0.24931  -0.11586862069
 C3 0.24974 0.165965 0.30512  0.0675913793103
 C3 0.749795 0.165957 0.30512  0.0675913793103
 C4 0.249845 0.206466 0.36478  -0.0773152873563
 C4 0.749874 0.206464 0.36478  -0.0773152873563
 C2 0.249834 0.303884 0.37009  -0.11586862069
 C2 0.749841 0.303883 0.37009  -0.11586862069
 C4 0.24978 0.358822 0.3151  -0.0773152873563
 C4 0.749773 0.358814 0.31511  -0.0773152873563
 C4 0.249924 0.316391 0.25578  -0.0773152873563
 C4 0.749947 0.316376 0.25578  -0.0773152873563
 C5 0.250034 0.177454 0.18400  0.67208637931
 C5 0.750082 0.177423 0.18401  0.67208637931
 C5 0.24991 0.346296 0.43492  0.67208637931
 C5 0.74991 0.346299 0.43492  0.67208637931
 C2 0.250147 0.780881 0.75070  -0.11586862069
 C2 0.750071 0.780899 0.75070  -0.11586862069
 C3 0.250271 0.834046 0.694  0.0675913793103
 C3 0.750176 0.834055 0.69489  0.0675913793103
 C4 0.250163 0.793545 0.6352  -0.0773152873563
 C4 0.750068 0.793547 0.63523  -0.0773152873563
 C2 0.250177 0.696127 0.62992  -0.11586862069
 C2 0.750109 0.696128 0.62992  -0.11586862069
 C4 0.250253 0.641189 0.68490  -0.0773152873563
 C4 0.750185 0.641198 0.68491  -0.0773152873563
 C4 0.250112 0.683621 0.74423  -0.0773152873563
 C4 0.750052 0.683638 0.7442  -0.0773152873563
 C5 0.249958 0.82256 0.81601  0.67208637931
 C5 0.749886 0.822596 0.81600  0.67208637931
 C5 0.250079 0.653721 0.56509  0.67208637931
 C5 0.750047 0.653711 0.56509  0.67208637931
 N1 0.091221 0.594646 0.43681  -0.24615862069
 N1 0.591209 0.594649 0.43681  -0.24615862069
 N1 0.092084 0.405641 0.5635  -0.24615862069
 N1 0.592071 0.405619 0.56349  -0.24615862069
 N1 0.408299 0.093585 0.06390  -0.24615862069
 N1 0.908283 0.093729 0.06380  -0.24615862069
 N1 0.407946 0.906014 0.93646  -0.24615862069
 N1 0.907928 0.906028 0.93644  -0.24615862069
 N1 0.408765 0.405364 0.56319  -0.24615862069
 N1 0.90875 0.405376 0.56320  -0.24615862069
 N1 0.407903 0.594384 0.4365  -0.24615862069
 N1 0.907886 0.594383 0.4365  -0.24615862069
 N1 0.091269 0.906451 0.93609  -0.24615862069
 N1 0.591256 0.906476 0.93610  -0.24615862069
 N1 0.091635 0.093958 0.06357  -0.24615862069
 N1 0.5916 0.09382 0.0636  -0.24615862069
 N2 0.249805 0.563004 0.19687  0.55036137931
 N2 0.749813 0.563002 0.19686  0.55036137931
 N2 0.250112 0.436995 0.80315  0.55036137931
 N2 0.750026 0.437001 0.80315  0.55036137931
 N2 0.249627 0.062796 0.30402  0.55036137931
 N2 0.74969 0.062788 0.30403  0.55036137931
 N2 0.250379 0.937216 0.69599  0.55036137931
 N2 0.750258 0.937224 0.69598  0.55036137931
 O1 0.322816 0.524012 0.1971  -0.30163862069
 O1 0.822822 0.524008 0.19710  -0.30163862069
 O1 0.322943 0.476336 0.80564  -0.30163862069
 O1 0.822873 0.476309 0.80563  -0.30163862069
 O1 0.176657 0.023658 0.3055  -0.30163862069
 O1 0.676729 0.023636 0.30559  -0.30163862069
 O1 0.177459 0.976367 0.69459  -0.30163862069
 O1 0.677334 0.976364 0.69459  -0.30163862069
 O1 0.177117 0.476017 0.8029  -0.30163862069
 O1 0.677048 0.476058 0.8029  -0.30163862069
 O1 0.17699 0.523634 0.19438  -0.30163862069
 O1 0.676995 0.523635 0.19437  -0.30163862069
 O1 0.323348 0.976356 0.69443  -0.30163862069
 O1 0.82322 0.976378 0.69442  -0.30163862069
 O1 0.322546 0.023641 0.3054  -0.30163862069
 O1 0.822615 0.023646 0.30541  -0.30163862069
 O2 0.248042 0.590048 0.32201  -0.62297112069
 O2 0.748024 0.590049 0.32200  -0.62297112069
 O2 0.25198 0.733869 0.36302  -0.62297112069
 O2 0.751962 0.733875 0.36301  -0.62297112069
 O2 0.248591 0.933339 0.05621  -0.62297112069
 O2 0.748623 0.933335 0.05620  -0.62297112069
 O2 0.248521 0.789256 0.01689  -0.62297112069
 O2 0.748509 0.789254 0.01688  -0.62297112069
 O2 0.251954 0.409967 0.67800  -0.62297112069
 O2 0.751938 0.409948 0.67801  -0.62297112069
 O2 0.248035 0.266146 0.63699  -0.62297112069
 O2 0.74806 0.266123 0.63700  -0.62297112069
 O2 0.251632 0.066643 0.94380  -0.62297112069
 O2 0.751725 0.066703 0.94385  -0.62297112069
 O2 0.249279 0.210709 0.98309  -0.62297112069
 O2 0.748336 0.210761 0.98313  -0.62297112069
 O2 0.248384 0.088615 0.17834  -0.62297112069
 O2 0.748422 0.088584 0.17836  -0.62297112069
 O2 0.251732 0.232142 0.13677  -0.62297112069
 O2 0.751809 0.232098 0.13677  -0.62297112069
 O2 0.248186 0.434781 0.44172  -0.62297112069
 O2 0.748167 0.434782 0.44172  -0.62297112069
 O2 0.251571 0.291328 0.48246  -0.62297112069
 O2 0.751562 0.29133 0.4824  -0.62297112069
 O2 0.251507 0.911401 0.82166  -0.62297112069
 O2 0.751451 0.911438 0.82165  -0.62297112069
 O2 0.248265 0.767876 0.86324  -0.62297112069
 O2 0.748233 0.767924 0.86324  -0.62297112069
 O2 0.251803 0.565237 0.55829  -0.62297112069
 O2 0.751782 0.565227 0.55830  -0.62297112069
 O2 0.248411 0.708693 0.51756  -0.62297112069
 O2 0.74839 0.708677 0.5175  -0.62297112069
