#======================================================================

# CRYSTAL DATA

#----------------------------------------------------------------------

data_VESTA_phase_1


_pd_phase_name                         MOF
_cell_length_a                         20.21600
_cell_length_b                         23.15000
_cell_length_c                         14.86600
_cell_angle_alpha                      91.11100
_cell_angle_beta                       89.98000
_cell_angle_gamma                      89.95300
_symmetry_space_group_name_H-M         "P 1"
_symmetry_Int_Tables_number            1

loop_
_symmetry_equiv_pos_as_xyz
   "x, y, z"

loop_
   _atom_site_label
   _atom_site_fract_x
   _atom_site_fract_y
   _atom_site_fract_z
 _atom_site_charge
 Zn1 0.464041 0.377449 0.12962  1.07788777778
 Zn1 0.464046 0.877458 0.1296  1.07788777778
 Zn1 0.964031 0.377448 0.12962  1.07788777778
 Zn1 0.964036 0.877456 0.12962  1.07788777778
 Zn1 0.058693 0.370202 0.3088  1.07788777778
 Zn1 0.058697 0.870211 0.30885  1.07788777778
 Zn1 0.558682 0.370203 0.30885  1.07788777778
 Zn1 0.558688 0.870212 0.30884  1.07788777778
 Zn1 0.214024 0.372554 0.37048  1.07788777778
 Zn1 0.214029 0.872564 0.37048  1.07788777778
 Zn1 0.714014 0.372555 0.37048  1.07788777778
 Zn1 0.714019 0.872563 0.37048  1.07788777778
 Zn1 0.308685 0.379798 0.19121  1.07788777778
 Zn1 0.308689 0.879807 0.19121  1.07788777778
 Zn1 0.808675 0.379798 0.19121  1.07788777778
 Zn1 0.808681 0.879806 0.19122  1.07788777778
 Zn1 0.035951 0.122562 0.87034  1.07788777778
 Zn1 0.035956 0.622572 0.87033  1.07788777778
 Zn1 0.535939 0.122563 0.87034  1.07788777778
 Zn1 0.535945 0.622571 0.87034  1.07788777778
 Zn1 0.4413 0.12981 0.69111  1.07788777778
 Zn1 0.441304 0.629817 0.69111  1.07788777778
 Zn1 0.941289 0.129808 0.69111  1.07788777778
 Zn1 0.941293 0.629816 0.69111  1.07788777778
 Zn1 0.285966 0.127457 0.62948  1.07788777778
 Zn1 0.285972 0.627465 0.62947  1.07788777778
 Zn1 0.785957 0.127456 0.62948  1.07788777778
 Zn1 0.785961 0.627465 0.62948  1.07788777778
 Zn1 0.191307 0.120211 0.80874  1.07788777778
 Zn1 0.19131 0.620222 0.80874  1.07788777778
 Zn1 0.691296 0.120212 0.80875  1.07788777778
 Zn1 0.691301 0.620221 0.80875  1.07788777778
 Zn1 2e-06 0.250004 3e-0  1.07788777778
 Zn1 6e-06 0.750014 0.99999  1.07788777778
 Zn1 0.499992 0.250004 9e-0  1.07788777778
 Zn1 0.499998 0.750013 0.  1.07788777778
 Zn1 0.249993 2e-06 0.49997  1.07788777778
 Zn1 0.249998 0.500011 0.49997  1.07788777778
 Zn1 0.749983 1e-06 0.49997  1.07788777778
 Zn1 0.749988 0.50001 0.49998  1.07788777778
 Zn1 0.0 0.0 1e-0  1.07788777778
 Zn1 5e-06 0.500009 0.99999  1.07788777778
 Zn1 0.49999 0.999999 0.99999  1.07788777778
 Zn1 0.499995 0.500009 0.  1.07788777778
 Zn1 0.249996 0.250006 0.49998  1.07788777778
 Zn1 0.250001 0.750015 0.49998  1.07788777778
 Zn1 0.749985 0.250005 0.49998  1.07788777778
 Zn1 0.74999 0.750015 0.49998  1.07788777778
 H1 0.378783 0.42832 0.37132  0.00927777777778
 H1 0.378783 0.928309 0.37132  0.00927777777778
 H1 0.878769 0.428294 0.37133  0.00927777777778
 H1 0.878774 0.928304 0.37133  0.00927777777778
 H1 0.025034 0.237222 0.27027  0.00927777777778
 H1 0.024992 0.737226 0.27028  0.00927777777778
 H1 0.525001 0.237228 0.27029  0.00927777777778
 H1 0.525041 0.737233 0.27026  0.00927777777778
 H1 0.3048 0.28102 0.04455  0.00927777777778
 H1 0.304806 0.781032 0.04453  0.00927777777778
 H1 0.804787 0.281016 0.04458  0.00927777777778
 H1 0.804791 0.781011 0.04462  0.00927777777778
 H1 0.102722 0.490821 0.2331  0.00927777777778
 H1 0.10271 0.990836 0.23314  0.00927777777778
 H1 0.602741 0.490809 0.23310  0.00927777777778
 H1 0.602747 0.990816 0.23309  0.00927777777778
 H1 0.080843 0.345299 0.91955  0.00927777777778
 H1 0.080799 0.845309 0.91948  0.00927777777778
 H1 0.580835 0.345297 0.91955  0.00927777777778
 H1 0.580859 0.845306 0.91956  0.00927777777778
 H1 0.354059 0.001438 0.01222  0.00927777777778
 H1 0.354063 0.501433 0.01220  0.00927777777778
 H1 0.854048 0.001419 0.01220  0.00927777777778
 H1 0.854052 0.501427 0.01219  0.00927777777778
 H1 0.128823 0.321854 0.1287  0.00927777777778
 H1 0.128824 0.821876 0.12875  0.00927777777778
 H1 0.62881 0.321859 0.12876  0.00927777777778
 H1 0.628819 0.821864 0.12875  0.00927777777778
 H1 0.275119 0.012773 0.22983  0.00927777777778
 H1 0.275055 0.512782 0.22980  0.00927777777778
 H1 0.775037 0.012775 0.22981  0.00927777777778
 H1 0.775124 0.512783 0.22984  0.00927777777778
 H1 0.05476 0.46905 0.45605  0.00927777777778
 H1 0.054767 0.96907 0.45605  0.00927777777778
 H1 0.554753 0.469065 0.45604  0.00927777777778
 H1 0.554756 0.969083 0.45601  0.00927777777778
 H1 0.352835 0.259168 0.26685  0.00927777777778
 H1 0.352827 0.75917 0.26683  0.00927777777778
 H1 0.852815 0.259165 0.26684  0.00927777777778
 H1 0.852838 0.759181 0.26686  0.00927777777778
 H1 0.331003 0.40463 0.58016  0.00927777777778
 H1 0.331008 0.904638 0.58016  0.00927777777778
 H1 0.830966 0.404627 0.58020  0.00927777777778
 H1 0.830988 0.904639 0.58018  0.00927777777778
 H1 0.104138 0.248501 0.48771  0.00927777777778
 H1 0.104145 0.748503 0.48770  0.00927777777778
 H1 0.604129 0.248495 0.48770  0.00927777777778
 H1 0.604133 0.748507 0.48770  0.00927777777778
 H1 0.121215 0.071725 0.62863  0.00927777777778
 H1 0.121214 0.571724 0.62862  0.00927777777778
 H1 0.621205 0.071716 0.6286  0.00927777777778
 H1 0.621213 0.571739 0.62863  0.00927777777778
 H1 0.474908 0.262791 0.72972  0.00927777777778
 H1 0.474955 0.762797 0.72970  0.00927777777778
 H1 0.974895 0.262788 0.72972  0.00927777777778
 H1 0.974906 0.762794 0.729  0.00927777777778
 H1 0.195191 0.219006 0.95538  0.00927777777778
 H1 0.195196 0.719004 0.95536  0.00927777777778
 H1 0.69518 0.218981 0.95545  0.00927777777778
 H1 0.695186 0.718999 0.95542  0.00927777777778
 H1 0.397303 0.009177 0.76679  0.00927777777778
 H1 0.397264 0.509204 0.76684  0.00927777777778
 H1 0.897242 0.009198 0.76685  0.00927777777778
 H1 0.897265 0.509197 0.76683  0.00927777777778
 H1 0.419178 0.154707 0.08046  0.00927777777778
 H1 0.419153 0.654719 0.08042  0.00927777777778
 H1 0.919124 0.154711 0.08040  0.00927777777778
 H1 0.919132 0.654721 0.08039  0.00927777777778
 H1 0.145934 0.498589 0.98776  0.00927777777778
 H1 0.145939 0.998588 0.98775  0.00927777777778
 H1 0.645925 0.498586 0.98776  0.00927777777778
 H1 0.645928 0.998593 0.9877  0.00927777777778
 H1 0.371171 0.178145 0.87120  0.00927777777778
 H1 0.371175 0.678157 0.87120  0.00927777777778
 H1 0.871159 0.178146 0.8712  0.00927777777778
 H1 0.871164 0.678158 0.87120  0.00927777777778
 H1 0.224846 0.487232 0.77009  0.00927777777778
 H1 0.224878 0.98724 0.77010  0.00927777777778
 H1 0.724876 0.487236 0.77012  0.00927777777778
 H1 0.724869 0.987242 0.77011  0.00927777777778
 H1 0.445232 0.031003 0.54381  0.00927777777778
 H1 0.445233 0.530953 0.54391  0.00927777777778
 H1 0.945218 0.030942 0.54392  0.00927777777778
 H1 0.945222 0.530954 0.54392  0.00927777777778
 H1 0.147176 0.240851 0.73313  0.00927777777778
 H1 0.147144 0.740842 0.73309  0.00927777777778
 H1 0.647131 0.240837 0.73310  0.00927777777778
 H1 0.647154 0.740855 0.73311  0.00927777777778
 H1 0.168994 0.095387 0.41978  0.00927777777778
 H1 0.168997 0.595393 0.41978  0.00927777777778
 H1 0.668976 0.095383 0.41979  0.00927777777778
 H1 0.669005 0.595392 0.41976  0.00927777777778
 H1 0.395854 0.251514 0.51225  0.00927777777778
 H1 0.39586 0.751524 0.51225  0.00927777777778
 H1 0.895843 0.251509 0.51224  0.00927777777778
 H1 0.895845 0.751526 0.51226  0.00927777777778
 C1 0.419531 0.412159 0.32830  0.679551111111
 C1 0.419535 0.912162 0.32829  0.679551111111
 C1 0.919521 0.412151 0.32830  0.679551111111
 C1 0.919526 0.91216 0.32831  0.679551111111
 C1 0.011997 0.259749 0.20780  0.679551111111
 C1 0.011982 0.759756 0.20780  0.679551111111
 C1 0.511967 0.259751 0.20782  0.679551111111
 C1 0.511988 0.759759 0.20780  0.679551111111
 C1 0.358626 0.288451 0.05111  0.679551111111
 C1 0.358631 0.788464 0.05108  0.679551111111
 C1 0.858613 0.288447 0.05112  0.679551111111
 C1 0.858618 0.788442 0.05116  0.679551111111
 C1 0.066809 0.476131 0.18132  0.679551111111
 C1 0.066813 0.976139 0.18133  0.679551111111
 C1 0.56681 0.476127 0.18131  0.679551111111
 C1 0.566817 0.976135 0.18131  0.679551111111
 C1 0.050776 0.3718 0.9665  0.679551111111
 C1 0.050747 0.87181 0.96647  0.679551111111
 C1 0.550771 0.371798 0.96652  0.679551111111
 C1 0.55078 0.871808 0.96652  0.679551111111
 C1 0.363089 0.46504 0.05733  0.679551111111
 C1 0.363095 0.965058 0.0573  0.679551111111
 C1 0.863078 0.465039 0.05732  0.679551111111
 C1 0.863083 0.965044 0.05733  0.679551111111
 C1 0.169563 0.337944 0.1717  0.679551111111
 C1 0.169567 0.837957 0.1717  0.679551111111
 C1 0.669552 0.337945 0.17176  0.679551111111
 C1 0.669559 0.837954 0.1717  0.679551111111
 C1 0.261904 0.490265 0.29223  0.679551111111
 C1 0.261928 0.990274 0.29224  0.679551111111
 C1 0.761919 0.490265 0.29225  0.679551111111
 C1 0.761913 0.990273 0.29224  0.679551111111
 C1 0.108578 0.461504 0.44940  0.679551111111
 C1 0.108584 0.961518 0.44940  0.679551111111
 C1 0.60857 0.46151 0.44940  0.679551111111
 C1 0.608573 0.961529 0.44937  0.679551111111
 C1 0.316872 0.273861 0.31865  0.679551111111
 C1 0.316874 0.773868 0.3186  0.679551111111
 C1 0.816862 0.273861 0.31865  0.679551111111
 C1 0.816877 0.773873 0.31866  0.679551111111
 C1 0.300843 0.378166 0.53334  0.679551111111
 C1 0.300847 0.878174 0.53334  0.679551111111
 C1 0.800822 0.378164 0.53336  0.679551111111
 C1 0.800829 0.878175 0.53336  0.679551111111
 C1 0.113118 0.28491 0.44262  0.679551111111
 C1 0.113123 0.784916 0.44261  0.679551111111
 C1 0.613108 0.284907 0.44262  0.679551111111
 C1 0.613112 0.784919 0.44262  0.679551111111
 C1 0.080462 0.087865 0.6716  0.679551111111
 C1 0.080463 0.587868 0.67165  0.679551111111
 C1 0.580453 0.087862 0.67166  0.679551111111
 C1 0.580458 0.587874 0.67166  0.679551111111
 C1 0.487979 0.240262 0.7921  0.679551111111
 C1 0.488003 0.740271 0.79216  0.679551111111
 C1 0.98795 0.240261 0.79218  0.679551111111
 C1 0.987967 0.740269 0.79216  0.679551111111
 C1 0.141366 0.211571 0.9488  0.679551111111
 C1 0.14137 0.711577 0.94881  0.679551111111
 C1 0.641354 0.211553 0.94888  0.679551111111
 C1 0.64136 0.711568 0.94887  0.679551111111
 C1 0.433199 0.023874 0.81861  0.679551111111
 C1 0.433182 0.523891 0.81864  0.679551111111
 C1 0.933165 0.023883 0.81864  0.679551111111
 C1 0.93318 0.523887 0.81863  0.679551111111
 C1 0.449222 0.128209 0.03346  0.679551111111
 C1 0.449218 0.628219 0.0334  0.679551111111
 C1 0.949198 0.12821 0.03344  0.679551111111
 C1 0.949203 0.62822 0.03343  0.679551111111
 C1 0.136903 0.034967 0.94263  0.679551111111
 C1 0.136908 0.534983 0.94263  0.679551111111
 C1 0.636893 0.034969 0.94263  0.679551111111
 C1 0.636898 0.534977 0.94263  0.679551111111
 C1 0.330429 0.162061 0.82820  0.679551111111
 C1 0.330434 0.662072 0.82820  0.679551111111
 C1 0.830417 0.162061 0.82820  0.679551111111
 C1 0.830421 0.662073 0.82820  0.679551111111
 C1 0.238059 0.009744 0.70769  0.679551111111
 C1 0.238049 0.509754 0.70768  0.679551111111
 C1 0.738055 0.009745 0.70770  0.679551111111
 C1 0.738056 0.509755 0.70771  0.679551111111
 C1 0.391412 0.038525 0.55051  0.679551111111
 C1 0.391416 0.538509 0.55055  0.679551111111
 C1 0.891401 0.038499 0.55056  0.679551111111
 C1 0.891405 0.538508 0.55056  0.679551111111
 C1 0.183124 0.226151 0.68131  0.679551111111
 C1 0.183106 0.726151 0.6812  0.679551111111
 C1 0.683094 0.226144 0.68129  0.679551111111
 C1 0.683099 0.726154 0.68129  0.679551111111
 C1 0.199152 0.121849 0.46660  0.679551111111
 C1 0.199157 0.621856 0.46660  0.679551111111
 C1 0.699138 0.121846 0.46661  0.679551111111
 C1 0.699158 0.621856 0.46659  0.679551111111
 C1 0.386875 0.215103 0.5573  0.679551111111
 C1 0.386879 0.715113 0.55734  0.679551111111
 C1 0.886863 0.2151 0.55734  0.679551111111
 C1 0.886866 0.715113 0.55734  0.679551111111
 O1 0.405164 0.400217 0.24595  -0.648452222222
 O1 0.405168 0.90022 0.2459  -0.648452222222
 O1 0.905155 0.400216 0.24595  -0.648452222222
 O1 0.905162 0.900227 0.24596  -0.648452222222
 O2 0.475514 0.407568 0.36448  -0.579320555556
 O2 0.475517 0.907572 0.36448  -0.579320555556
 O2 0.975504 0.407562 0.36449  -0.579320555556
 O2 0.975509 0.907571 0.36450  -0.579320555556
 O1 0.010407 0.315265 0.21398  -0.648452222222
 O1 0.010414 0.815273 0.21398  -0.648452222222
 O1 0.510396 0.315268 0.21399  -0.648452222222
 O1 0.510399 0.815276 0.21398  -0.648452222222
 O2 6.9e-05 0.229961 0.1386  -0.579320555556
 O2 7.5e-05 0.72997 0.13861  -0.579320555556
 O2 0.500049 0.22996 0.1386  -0.579320555556
 O2 0.500058 0.729971 0.13862  -0.579320555556
 O1 0.375641 0.326195 0.11165  -0.648452222222
 O1 0.375642 0.826218 0.11161  -0.648452222222
 O1 0.875631 0.326191 0.11167  -0.648452222222
 O1 0.87564 0.826182 0.11171  -0.648452222222
 O2 0.396525 0.259862 0.00050  -0.579320555556
 O2 0.396532 0.759872 0.00048  -0.579320555556
 O2 0.896509 0.259862 0.00051  -0.579320555556
 O2 0.896509 0.759869 0.00052  -0.579320555556
 O1 0.043872 0.424898 0.19132  -0.648452222222
 O1 0.043874 0.924906 0.19133  -0.648452222222
 O1 0.543864 0.424897 0.19132  -0.648452222222
 O1 0.543868 0.924906 0.19132  -0.648452222222
 O2 0.053227 0.010396 0.11992  -0.579320555556
 O2 0.05324 0.510403 0.11991  -0.579320555556
 O2 0.553237 0.010391 0.11990  -0.579320555556
 O2 0.553239 0.5104 0.11991  -0.579320555556
 O1 0.013673 0.342773 0.02030  -0.648452222222
 O1 0.013675 0.842781 0.02029  -0.648452222222
 O1 0.513664 0.342772 0.02030  -0.648452222222
 O1 0.513672 0.842781 0.02030  -0.648452222222
 O2 0.055862 0.425457 0.96396  -0.579320555556
 O2 0.055862 0.925465 0.96395  -0.579320555556
 O2 0.555851 0.425455 0.96395  -0.579320555556
 O2 0.55586 0.925465 0.9639  -0.579320555556
 O1 0.423749 0.448219 0.0627  -0.648452222222
 O1 0.423754 0.948233 0.0627  -0.648452222222
 O1 0.923739 0.448217 0.06275  -0.648452222222
 O1 0.923743 0.948222 0.06275  -0.648452222222
 O2 0.314181 0.444674 0.09784  -0.579320555556
 O2 0.314187 0.944687 0.09784  -0.579320555556
 O2 0.814171 0.444673 0.09784  -0.579320555556
 O2 0.814176 0.944679 0.09784  -0.579320555556
 O1 0.15518 0.349866 0.25413  -0.648452222222
 O1 0.155184 0.849877 0.25413  -0.648452222222
 O1 0.655169 0.349868 0.25413  -0.648452222222
 O1 0.655175 0.849874 0.25413  -0.648452222222
 O2 0.225552 0.342494 0.13555  -0.579320555556
 O2 0.225555 0.842505 0.13555  -0.579320555556
 O2 0.72554 0.342496 0.13555  -0.579320555556
 O2 0.725548 0.842504 0.13555  -0.579320555556
 O1 0.260144 0.434758 0.28596  -0.648452222222
 O1 0.260158 0.934768 0.28597  -0.648452222222
 O1 0.760141 0.434759 0.28597  -0.648452222222
 O1 0.760145 0.934768 0.28597  -0.648452222222
 O2 0.249989 0.020052 0.36144  -0.579320555556
 O2 0.249986 0.520062 0.3614  -0.579320555556
 O2 0.74997 0.020053 0.36145  -0.579320555556
 O2 0.749991 0.52006 0.36145  -0.579320555556
 O1 0.125509 0.423519 0.38914  -0.648452222222
 O1 0.125514 0.923525 0.38915  -0.648452222222
 O1 0.625499 0.423515 0.3891  -0.648452222222
 O1 0.625506 0.923536 0.3891  -0.648452222222
 O2 0.146536 0.490205 0.49965  -0.579320555556
 O2 0.146543 0.990215 0.49966  -0.579320555556
 O2 0.646529 0.490207 0.49966  -0.579320555556
 O2 0.646529 0.990215 0.49965  -0.579320555556
 O1 0.293899 0.325122 0.30869  -0.648452222222
 O1 0.293903 0.82513 0.30869  -0.648452222222
 O1 0.793886 0.325121 0.30869  -0.648452222222
 O1 0.79389 0.825129 0.30869  -0.648452222222
 O2 0.303291 0.239586 0.38003  -0.579320555556
 O2 0.303293 0.739593 0.38003  -0.579320555556
 O2 0.803278 0.239585 0.38003  -0.579320555556
 O2 0.80329 0.739595 0.38004  -0.579320555556
 O1 0.263722 0.407231 0.47962  -0.648452222222
 O1 0.263729 0.90724 0.4796  -0.648452222222
 O1 0.763711 0.40723 0.47963  -0.648452222222
 O1 0.763716 0.90724 0.47963  -0.648452222222
 O2 0.30584 0.324502 0.53602  -0.579320555556
 O2 0.305844 0.82451 0.53602  -0.579320555556
 O2 0.805826 0.324499 0.53603  -0.579320555556
 O2 0.805833 0.82451 0.5360  -0.579320555556
 O1 0.173749 0.301738 0.43721  -0.648452222222
 O1 0.173753 0.801745 0.43721  -0.648452222222
 O1 0.673739 0.301736 0.43721  -0.648452222222
 O1 0.673743 0.801747 0.43721  -0.648452222222
 O2 0.064189 0.305286 0.40213  -0.579320555556
 O2 0.064193 0.805294 0.4021  -0.579320555556
 O2 0.564178 0.305286 0.40213  -0.579320555556
 O2 0.564183 0.805297 0.40213  -0.579320555556
 O1 0.094826 0.099798 0.75401  -0.648452222222
 O1 0.094828 0.599801 0.75400  -0.648452222222
 O1 0.594817 0.0998 0.75401  -0.648452222222
 O1 0.594822 0.599809 0.75401  -0.648452222222
 O2 0.024478 0.09245 0.63547  -0.579320555556
 O2 0.02448 0.592457 0.63546  -0.579320555556
 O2 0.52447 0.09245 0.63547  -0.579320555556
 O2 0.524475 0.59246 0.63547  -0.579320555556
 O1 0.489584 0.184746 0.78598  -0.648452222222
 O1 0.489592 0.684754 0.78598  -0.648452222222
 O1 0.989575 0.184746 0.78598  -0.648452222222
 O1 0.989571 0.684753 0.78597  -0.648452222222
 O2 0.499919 0.270047 0.86136  -0.579320555556
 O2 0.499935 0.770058 0.86134  -0.579320555556
 O2 0.999904 0.270048 0.86135  -0.579320555556
 O2 0.999897 0.770058 0.86134  -0.579320555556
 O1 0.124353 0.173807 0.88832  -0.648452222222
 O1 0.124351 0.673842 0.88825  -0.648452222222
 O1 0.624343 0.173802 0.88835  -0.648452222222
 O1 0.624348 0.673813 0.88834  -0.648452222222
 O2 0.103468 0.240149 0.99946  -0.579320555556
 O2 0.103475 0.740156 0.99944  -0.579320555556
 O2 0.603453 0.240146 0.99948  -0.579320555556
 O2 0.60346 0.740156 0.99947  -0.579320555556
 O1 0.456121 0.075114 0.80863  -0.648452222222
 O1 0.456124 0.575123 0.8086  -0.648452222222
 O1 0.956109 0.075113 0.80864  -0.648452222222
 O1 0.956113 0.575122 0.80863  -0.648452222222
 O2 0.446753 0.489617 0.88004  -0.579320555556
 O2 0.446771 0.989622 0.88003  -0.579320555556
 O2 0.946748 0.489615 0.88004  -0.579320555556
 O2 0.946743 0.989628 0.88005  -0.579320555556
 O1 0.486318 0.157238 0.97967  -0.648452222222
 O1 0.486321 0.657246 0.97966  -0.648452222222
 O1 0.986306 0.157238 0.97966  -0.648452222222
 O1 0.986315 0.657247 0.97965  -0.648452222222
 O2 0.444134 0.074552 0.03601  -0.579320555556
 O2 0.444135 0.574562 0.0360  -0.579320555556
 O2 0.944117 0.074553 0.03600  -0.579320555556
 O2 0.944125 0.574563 0.03599  -0.579320555556
 O1 0.076243 0.051789 0.93720  -0.648452222222
 O1 0.076248 0.551805 0.93720  -0.648452222222
 O1 0.576233 0.05179 0.93720  -0.648452222222
 O1 0.576238 0.551798 0.93720  -0.648452222222
 O2 0.18581 0.055334 0.9021  -0.579320555556
 O2 0.185815 0.555349 0.9021  -0.579320555556
 O2 0.685801 0.055334 0.9021  -0.579320555556
 O2 0.685806 0.555343 0.90212  -0.579320555556
 O1 0.344813 0.150141 0.74583  -0.648452222222
 O1 0.344818 0.65015 0.74583  -0.648452222222
 O1 0.8448 0.150144 0.74583  -0.648452222222
 O1 0.844805 0.650151 0.74583  -0.648452222222
 O2 0.27444 0.157514 0.86440  -0.579320555556
 O2 0.274445 0.657522 0.86440  -0.579320555556
 O2 0.774428 0.157516 0.86441  -0.579320555556
 O2 0.774434 0.657524 0.86441  -0.579320555556
 O1 0.239839 0.065249 0.71398  -0.648452222222
 O1 0.239842 0.565258 0.71398  -0.648452222222
 O1 0.739829 0.065251 0.71398  -0.648452222222
 O1 0.739833 0.565261 0.71398  -0.648452222222
 O2 0.249995 0.479961 0.63848  -0.579320555556
 O2 0.250005 0.97997 0.63849  -0.579320555556
 O2 0.749991 0.47996 0.63850  -0.579320555556
 O2 0.74999 0.97997 0.63849  -0.579320555556
 O1 0.374486 0.076513 0.6107  -0.648452222222
 O1 0.374489 0.576511 0.61079  -0.648452222222
 O1 0.874472 0.076494 0.61081  -0.648452222222
 O1 0.874475 0.576503 0.61080  -0.648452222222
 O2 0.35345 0.009813 0.50028  -0.579320555556
 O2 0.353457 0.509815 0.50029  -0.579320555556
 O2 0.853443 0.009805 0.50030  -0.579320555556
 O2 0.853447 0.509813 0.50030  -0.579320555556
 O1 0.206096 0.17489 0.69127  -0.648452222222
 O1 0.206102 0.674899 0.69127  -0.648452222222
 O1 0.706084 0.17489 0.69127  -0.648452222222
 O1 0.706091 0.674901 0.69127  -0.648452222222
 O2 0.196708 0.260428 0.61993  -0.579320555556
 O2 0.196698 0.760432 0.61992  -0.579320555556
 O2 0.696685 0.260423 0.61992  -0.579320555556
 O2 0.696693 0.760435 0.61993  -0.579320555556
 O1 0.236267 0.092782 0.52032  -0.648452222222
 O1 0.236273 0.592789 0.52032  -0.648452222222
 O1 0.736258 0.09278 0.5203  -0.648452222222
 O1 0.736263 0.59279 0.52032  -0.648452222222
 O2 0.19415 0.175513 0.46393  -0.579320555556
 O2 0.194156 0.67552 0.46393  -0.579320555556
 O2 0.694141 0.17551 0.46394  -0.579320555556
 O2 0.694147 0.67552 0.46393  -0.579320555556
 O1 0.326243 0.198278 0.56275  -0.648452222222
 O1 0.326247 0.698287 0.56275  -0.648452222222
 O1 0.826231 0.198274 0.56275  -0.648452222222
 O1 0.826235 0.698285 0.56275  -0.648452222222
 O2 0.435804 0.194729 0.59783  -0.579320555556
 O2 0.435808 0.694735 0.59783  -0.579320555556
 O2 0.935792 0.194724 0.59783  -0.579320555556
 O2 0.935796 0.694734 0.59783  -0.579320555556
