#======================================================================

# CRYSTAL DATA

#----------------------------------------------------------------------

data_VESTA_phase_1


_pd_phase_name                         MOF
_cell_length_a                         18.44500
_cell_length_b                         18.42200
_cell_length_c                         18.41300
_cell_angle_alpha                      60.14400
_cell_angle_beta                       60.17800
_cell_angle_gamma                      60.19100
_symmetry_space_group_name_H-M         "P 1"
_symmetry_Int_Tables_number            1

loop_
_symmetry_equiv_pos_as_xyz
   "x, y, z"

loop_
   _atom_site_label
   _atom_site_fract_x
   _atom_site_fract_y
   _atom_site_fract_z
 _atom_site_charge
 Zn1 0.793272 0.793476 0.61939  1.09315896226
 Zn1 0.793613 0.793711 0.79380  1.09315896226
 Zn1 0.619872 0.793183 0.79328  1.09315896226
 Zn1 0.793201 0.619495 0.79350  1.09315896226
 Zn1 0.206729 0.206513 0.38062  1.09315896226
 Zn1 0.206388 0.206276 0.2062  1.09315896226
 Zn1 0.2068 0.380493 0.20651  1.09315896226
 Zn1 0.380129 0.206804 0.20673  1.09315896226
 H1 0.664101 0.952232 0.43146  0.114088962264
 H1 0.952363 0.664368 0.95222  0.114088962264
 H1 0.432323 0.951312 0.66452  0.114088962264
 H1 0.951252 0.431982 0.95183  0.114088962264
 H1 0.664105 0.431578 0.95221  0.114088962264
 H1 0.951366 0.951832 0.43186  0.114088962264
 H1 0.432291 0.664399 0.95138  0.114088962264
 H1 0.952277 0.952146 0.66449  0.114088962264
 H1 0.664076 0.952551 0.95259  0.114088962264
 H1 0.951593 0.431868 0.66451  0.114088962264
 H1 0.432562 0.951171 0.95131  0.114088962264
 H1 0.951787 0.664382 0.43166  0.114088962264
 H1 0.048212 0.335606 0.56835  0.114088962264
 H1 0.335925 0.047443 0.04741  0.114088962264
 H1 0.048407 0.56812 0.33550  0.114088962264
 H1 0.567439 0.048822 0.04870  0.114088962264
 H1 0.56771 0.335589 0.04863  0.114088962264
 H1 0.048635 0.048156 0.56816  0.114088962264
 H1 0.335896 0.56841 0.04780  0.114088962264
 H1 0.047724 0.047842 0.33552  0.114088962264
 H1 0.047635 0.33562 0.047  0.114088962264
 H1 0.567678 0.048673 0.33549  0.114088962264
 H1 0.048746 0.568007 0.04818  0.114088962264
 H1 0.3359 0.047753 0.56855  0.114088962264
 C1 0.592213 0.973544 0.46071  -0.0557410377358
 C1 0.97362 0.59236 0.9735  -0.0557410377358
 C1 0.461188 0.97303 0.59245  -0.0557410377358
 C1 0.973 0.461006 0.97332  -0.0557410377358
 C1 0.592216 0.460771 0.97354  -0.0557410377358
 C1 0.973059 0.973311 0.46094  -0.0557410377358
 C1 0.461169 0.592376 0.97308  -0.0557410377358
 C1 0.973568 0.973483 0.59244  -0.0557410377358
 C1 0.592198 0.973706 0.97375  -0.0557410377358
 C1 0.973192 0.460934 0.5924  -0.0557410377358
 C1 0.461328 0.972942 0.97304  -0.0557410377358
 C1 0.973302 0.592369 0.46082  -0.0557410377358
 C1 0.026698 0.407619 0.53919  -0.0557410377358
 C1 0.407802 0.026282 0.02626  -0.0557410377358
 C1 0.026808 0.539054 0.40757  -0.0557410377358
 C1 0.538672 0.027047 0.0269  -0.0557410377358
 C1 0.538831 0.407612 0.02694  -0.0557410377358
 C1 0.026941 0.026677 0.53907  -0.0557410377358
 C1 0.407785 0.539217 0.02647  -0.0557410377358
 C1 0.026432 0.026506 0.40758  -0.0557410377358
 C1 0.02638 0.407628 0.02648  -0.0557410377358
 C1 0.538813 0.026957 0.40756  -0.0557410377358
 C1 0.027 0.538982 0.02669  -0.0557410377358
 C1 0.407788 0.026443 0.53930  -0.0557410377358
 C2 0.553736 0.94622 0.55350  -0.110943537736
 C3 0.611122 0.888804 0.61073  0.661422295597
 C2 0.946266 0.55372 0.94649  -0.110943537736
 C3 0.888874 0.611111 0.88924  0.661422295597
 C2 0.553718 0.553493 0.94626  -0.110943537736
 C3 0.611092 0.610727 0.88880  0.661422295597
 C2 0.946284 0.946447 0.55372  -0.110943537736
 C3 0.888885 0.889198 0.61110  0.661422295597
 C2 0.553871 0.946336 0.94640  -0.110943537736
 C3 0.611357 0.888913 0.88916  0.661422295597
 C2 0.946146 0.553645 0.55360  -0.110943537736
 C3 0.888625 0.610983 0.61090  0.661422295597
 C2 0.053854 0.446343 0.4464  -0.110943537736
 C3 0.111375 0.389006 0.38912  0.661422295597
 C2 0.446129 0.053692 0.0535  -0.110943537736
 C3 0.388643 0.110988 0.11094  0.661422295597
 C2 0.446283 0.446495 0.05377  -0.110943537736
 C3 0.388909 0.389261 0.11119  0.661422295597
 C2 0.05372 0.053538 0.44629  -0.110943537736
 C3 0.111109 0.110797 0.38891  0.661422295597
 C2 0.053724 0.446268 0.05353  -0.110943537736
 C3 0.111149 0.388877 0.1107  0.661422295597
 C2 0.446265 0.053751 0.44652  -0.110943537736
 C3 0.388879 0.111219 0.3892  0.661422295597
 O1 0.750133 0.750001 0.7  -1.25852103774
 O1 0.249867 0.249987 0.25002  -1.25852103774
 O2 0.694787 0.866754 0.57103  -0.593096871069
 O2 0.866956 0.694931 0.86725  -0.593096871069
 O2 0.571677 0.866509 0.69460  -0.593096871069
 O2 0.866544 0.571493 0.86708  -0.593096871069
 O2 0.694755 0.571084 0.86685  -0.593096871069
 O2 0.866583 0.867074 0.57142  -0.593096871069
 O2 0.571651 0.694541 0.8664  -0.593096871069
 O2 0.866982 0.867142 0.69498  -0.593096871069
 O2 0.695026 0.867137 0.86721  -0.593096871069
 O2 0.866376 0.57137 0.69476  -0.593096871069
 O2 0.57193 0.866564 0.86683  -0.593096871069
 O2 0.86654 0.694794 0.57122  -0.593096871069
 O2 0.133459 0.305195 0.42879  -0.593096871069
 O2 0.304974 0.132873 0.13278  -0.593096871069
 O2 0.133625 0.428618 0.30525  -0.593096871069
 O2 0.42807 0.133445 0.13316  -0.593096871069
 O2 0.42835 0.305447 0.13354  -0.593096871069
 O2 0.13342 0.132912 0.42859  -0.593096871069
 O2 0.305246 0.428904 0.13317  -0.593096871069
 O2 0.133018 0.132846 0.3050  -0.593096871069
 O2 0.13304 0.305056 0.13277  -0.593096871069
 O2 0.428324 0.13347 0.30542  -0.593096871069
 O2 0.133451 0.428495 0.13294  -0.593096871069
 O2 0.305214 0.133225 0.42898  -0.593096871069
