#======================================================================

# CRYSTAL DATA

#----------------------------------------------------------------------

data_VESTA_phase_1


_pd_phase_name                         MOF
_cell_length_a                         18.92300
_cell_length_b                         18.94900
_cell_length_c                         18.94700
_cell_angle_alpha                      90.00000
_cell_angle_beta                       89.99800
_cell_angle_gamma                      89.99900
_symmetry_space_group_name_H-M         "P 1"
_symmetry_Int_Tables_number            1

loop_
_symmetry_equiv_pos_as_xyz
   "x, y, z"

loop_
   _atom_site_label
   _atom_site_fract_x
   _atom_site_fract_y
   _atom_site_fract_z
 _atom_site_charge
 Cu1 0.999978 0.627057 0.50005  0.498006666667
 Cu1 1.5e-05 0.372953 0.4999  0.498006666667
 Cu1 0.500145 5e-05 0.62702  0.498006666667
 Cu1 0.499828 0.999943 0.37298  0.498006666667
 Cu1 0.627393 0.499967 4.5e-0  0.498006666667
 Cu1 0.372577 0.50003 0.99995  0.498006666667
 Cu1 0.627951 0.999969 0.50015  0.498006666667
 Cu1 0.372014 1.9e-05 0.49985  0.498006666667
 Cu1 0.999924 0.499953 0.37293  0.498006666667
 Cu1 6.5e-05 0.500058 0.62709  0.498006666667
 Cu1 0.499963 0.627015 4.3e-0  0.498006666667
 Cu1 0.500023 0.372998 0.99995  0.498006666667
 H1 0.864629 0.717693 0.55663  0.100233333333
 H1 0.134934 0.281958 0.55685  0.100233333333
 H1 0.135295 0.717568 0.44353  0.100233333333
 H1 0.86515 0.281754 0.4430  0.100233333333
 H1 0.555922 0.864412 0.7171  0.100233333333
 H1 0.555366 0.136114 0.28355  0.100233333333
 H1 0.444578 0.136258 0.71642  0.100233333333
 H1 0.44431 0.863888 0.28337  0.100233333333
 H1 0.717712 0.556408 0.86451  0.100233333333
 H1 0.281591 0.55697 0.1349  0.100233333333
 H1 0.717781 0.443432 0.13559  0.100233333333
 H1 0.281865 0.443196 0.86481  0.100233333333
 H1 0.717583 0.864043 0.44375  0.100233333333
 H1 0.282796 0.136381 0.44406  0.100233333333
 H1 0.717929 0.135635 0.55649  0.100233333333
 H1 0.282868 0.863646 0.55583  0.100233333333
 H1 0.864764 0.556626 0.28221  0.100233333333
 H1 0.135255 0.556738 0.7178  0.100233333333
 H1 0.134788 0.443088 0.2817  0.100233333333
 H1 0.865188 0.443189 0.71810  0.100233333333
 H1 0.556333 0.717552 0.13520  0.100233333333
 H1 0.556352 0.282571 0.86469  0.100233333333
 H1 0.443532 0.717765 0.86504  0.100233333333
 H1 0.44352 0.282343 0.13495  0.100233333333
 H1 0.136547 0.283548 0.44448  0.100233333333
 H1 0.863857 0.716843 0.44425  0.100233333333
 H1 0.863462 0.283707 0.55534  0.100233333333
 H1 0.136054 0.717003 0.5558  0.100233333333
 H1 0.443069 0.134562 0.28185  0.100233333333
 H1 0.443642 0.864903 0.717  0.100233333333
 H1 0.556303 0.864701 0.28260  0.100233333333
 H1 0.556571 0.135154 0.71763  0.100233333333
 H1 0.282891 0.444172 0.13610  0.100233333333
 H1 0.717762 0.443617 0.86444  0.100233333333
 H1 0.28287 0.555977 0.8637  0.100233333333
 H1 0.717425 0.556188 0.13586  0.100233333333
 H1 0.28148 0.135076 0.55710  0.100233333333
 H1 0.718125 0.86455 0.55681  0.100233333333
 H1 0.281148 0.865246 0.44267  0.100233333333
 H1 0.718005 0.135474 0.4433  0.100233333333
 H1 0.136459 0.444532 0.71652  0.100233333333
 H1 0.863444 0.444446 0.28347  0.100233333333
 H1 0.863938 0.555762 0.71696  0.100233333333
 H1 0.136021 0.555665 0.28316  0.100233333333
 H1 0.444235 0.283113 0.86416  0.100233333333
 H1 0.444161 0.716846 0.13590  0.100233333333
 H1 0.555866 0.282891 0.13560  0.100233333333
 H1 0.555906 0.717063 0.86447  0.100233333333
 H1 0.768301 0.768262 0.60807  0.100233333333
 H1 0.23182 0.231846 0.60782  0.100233333333
 H1 0.231542 0.768239 0.39202  0.100233333333
 H1 0.768069 0.231789 0.39222  0.100233333333
 H1 0.607941 0.768541 0.76869  0.100233333333
 H1 0.607689 0.231552 0.23162  0.100233333333
 H1 0.391999 0.231396 0.76861  0.100233333333
 H1 0.391681 0.768757 0.23118  0.100233333333
 H1 0.768281 0.607902 0.76841  0.100233333333
 H1 0.231566 0.607902 0.23166  0.100233333333
 H1 0.768335 0.391881 0.23161  0.100233333333
 H1 0.231637 0.392013 0.76835  0.100233333333
 H1 0.768356 0.768342 0.39201  0.100233333333
 H1 0.231437 0.231533 0.39172  0.100233333333
 H1 0.768637 0.231583 0.60816  0.100233333333
 H1 0.23167 0.768428 0.60801  0.100233333333
 H1 0.768306 0.607966 0.23167  0.100233333333
 H1 0.231708 0.608075 0.76837  0.100233333333
 H1 0.231756 0.392157 0.23163  0.100233333333
 H1 0.768308 0.392193 0.76826  0.100233333333
 H1 0.607839 0.768466 0.23155  0.100233333333
 H1 0.608173 0.231374 0.76868  0.100233333333
 H1 0.392376 0.768367 0.76828  0.100233333333
 H1 0.39216 0.231598 0.23146  0.100233333333
 C1 0.873997 0.672609 0.5904  0.0132466666667
 C1 0.125788 0.327217 0.59053  0.0132466666667
 C1 0.125921 0.672509 0.40965  0.0132466666667
 C1 0.874244 0.327052 0.4093  0.0132466666667
 C1 0.590273 0.873987 0.67241  0.0132466666667
 C1 0.589821 0.126319 0.32811  0.0132466666667
 C1 0.410049 0.12636 0.67194  0.0132466666667
 C1 0.409735 0.873768 0.3278  0.0132466666667
 C1 0.672669 0.590343 0.87404  0.0132466666667
 C1 0.32688 0.590664 0.12569  0.0132466666667
 C1 0.6727 0.409544 0.12607  0.0132466666667
 C1 0.327083 0.409435 0.87415  0.0132466666667
 C1 0.672635 0.873783 0.40974  0.0132466666667
 C1 0.327442 0.126385 0.40973  0.0132466666667
 C1 0.672978 0.126007 0.59053  0.0132466666667
 C1 0.327637 0.873587 0.59001  0.0132466666667
 C1 0.874066 0.59044 0.32734  0.0132466666667
 C1 0.125938 0.590546 0.67273  0.0132466666667
 C1 0.125702 0.409437 0.32707  0.0132466666667
 C1 0.874302 0.409532 0.67282  0.0132466666667
 C1 0.590366 0.672575 0.12585  0.0132466666667
 C1 0.590446 0.32748 0.87413  0.0132466666667
 C1 0.409595 0.672686 0.87424  0.0132466666667
 C1 0.409574 0.327407 0.12570  0.0132466666667
 C1 0.126536 0.328016 0.41002  0.0132466666667
 C1 0.873635 0.672187 0.40996  0.0132466666667
 C1 0.873485 0.328139 0.58984  0.0132466666667
 C1 0.126311 0.672322 0.59013  0.0132466666667
 C1 0.409222 0.125502 0.32704  0.0132466666667
 C1 0.409668 0.874206 0.6724  0.0132466666667
 C1 0.59036 0.874116 0.32755  0.0132466666667
 C1 0.590671 0.125766 0.67270  0.0132466666667
 C1 0.327637 0.409937 0.12627  0.0132466666667
 C1 0.672775 0.409616 0.87400  0.0132466666667
 C1 0.327629 0.59019 0.87364  0.0132466666667
 C1 0.672537 0.590283 0.12617  0.0132466666667
 C1 0.326884 0.125806 0.59064  0.0132466666667
 C1 0.672981 0.874033 0.59064  0.0132466666667
 C1 0.326552 0.874404 0.40910  0.0132466666667
 C1 0.672758 0.126028 0.40964  0.0132466666667
 C1 0.126519 0.410105 0.67201  0.0132466666667
 C1 0.873428 0.409999 0.32796  0.0132466666667
 C1 0.873662 0.59003 0.67227  0.0132466666667
 C1 0.126269 0.589947 0.32783  0.0132466666667
 C1 0.409869 0.32776 0.87385  0.0132466666667
 C1 0.409769 0.672235 0.1261  0.0132466666667
 C1 0.590128 0.327651 0.12606  0.0132466666667
 C1 0.590158 0.672302 0.87403  0.0132466666667
 C2 0.776149 0.684709 0.68486  0.00752666666667
 C2 0.837844 0.651621 0.65173  0.00752666666667
 C2 0.22384 0.315263 0.68474  0.00752666666667
 C2 0.162161 0.348372 0.651  0.00752666666667
 C2 0.223671 0.684726 0.31518  0.00752666666667
 C2 0.162077 0.651535 0.34840  0.00752666666667
 C2 0.776072 0.315187 0.3152  0.00752666666667
 C2 0.83781 0.348248 0.34836  0.00752666666667
 C2 0.684761 0.776251 0.68500  0.00752666666667
 C2 0.651843 0.838011 0.65191  0.00752666666667
 C2 0.684512 0.223812 0.31531  0.00752666666667
 C2 0.651518 0.162133 0.34847  0.00752666666667
 C2 0.315274 0.22376 0.68483  0.00752666666667
 C2 0.348232 0.162039 0.65170  0.00752666666667
 C2 0.314981 0.776338 0.31499  0.00752666666667
 C2 0.347912 0.838093 0.34808  0.00752666666667
 C2 0.684722 0.684815 0.7763  0.00752666666667
 C2 0.651674 0.651668 0.83804  0.00752666666667
 C2 0.315033 0.684905 0.22361  0.00752666666667
 C2 0.348012 0.651845 0.16186  0.00752666666667
 C2 0.684599 0.315146 0.22382  0.00752666666667
 C2 0.651664 0.348221 0.1620  0.00752666666667
 C2 0.315232 0.315136 0.77628  0.00752666666667
 C2 0.348208 0.348229 0.8380  0.00752666666667
 C2 0.684714 0.776249 0.3151  0.00752666666667
 C2 0.651759 0.837991 0.34826  0.00752666666667
 C2 0.315181 0.223734 0.31499  0.00752666666667
 C2 0.348094 0.161949 0.34804  0.00752666666667
 C2 0.685004 0.223666 0.6850  0.00752666666667
 C2 0.65209 0.161872 0.65198  0.00752666666667
 C2 0.315401 0.776245 0.68475  0.00752666666667
 C2 0.348412 0.837921 0.65160  0.00752666666667
 C2 0.776162 0.684763 0.31523  0.00752666666667
 C2 0.837849 0.65164 0.34835  0.00752666666667
 C2 0.223879 0.684837 0.68477  0.00752666666667
 C2 0.162122 0.65177 0.65173  0.00752666666667
 C2 0.223796 0.315276 0.31511  0.00752666666667
 C2 0.1621 0.348389 0.34822  0.00752666666667
 C2 0.776302 0.315287 0.6848  0.00752666666667
 C2 0.837907 0.348495 0.65164  0.00752666666667
 C2 0.684727 0.684858 0.22374  0.00752666666667
 C2 0.65172 0.651763 0.16202  0.00752666666667
 C2 0.684901 0.315138 0.77635  0.00752666666667
 C2 0.651919 0.348186 0.83810  0.00752666666667
 C2 0.315373 0.684874 0.77621  0.00752666666667
 C2 0.348362 0.651776 0.83793  0.00752666666667
 C2 0.315275 0.315212 0.22365  0.00752666666667
 C2 0.348333 0.348348 0.16199  0.00752666666667
 C3 0.745322 0.745317 0.65551  -0.220553333333
 C3 0.254731 0.254718 0.65533  -0.220553333333
 C3 0.254484 0.745339 0.34454  -0.220553333333
 C3 0.74513 0.254692 0.34474  -0.220553333333
 C3 0.655311 0.745444 0.745  -0.220553333333
 C3 0.655105 0.254595 0.2546  -0.220553333333
 C3 0.344661 0.254521 0.74548  -0.220553333333
 C3 0.344378 0.74559 0.25434  -0.220553333333
 C3 0.745286 0.655323 0.74544  -0.220553333333
 C3 0.254509 0.655372 0.25458  -0.220553333333
 C3 0.745245 0.344549 0.25467  -0.220553333333
 C3 0.254663 0.344619 0.74536  -0.220553333333
 C3 0.745317 0.745349 0.3446  -0.220553333333
 C3 0.254562 0.254613 0.3444  -0.220553333333
 C3 0.745559 0.25461 0.6555  -0.220553333333
 C3 0.254747 0.745397 0.65536  -0.220553333333
 C3 0.745305 0.655381 0.25465  -0.220553333333
 C3 0.254741 0.655455 0.74535  -0.220553333333
 C3 0.254703 0.344696 0.25457  -0.220553333333
 C3 0.745417 0.344679 0.74538  -0.220553333333
 C3 0.655275 0.745439 0.25457  -0.220553333333
 C3 0.655559 0.254458 0.74561  -0.220553333333
 C3 0.344881 0.7454 0.74532  -0.220553333333
 C3 0.344692 0.254597 0.25445  -0.220553333333
 N1 0.926874 0.627045 0.57624  -0.185348333333
 N1 0.07298 0.372848 0.57625  -0.185348333333
 N1 0.073084 0.626906 0.42391  -0.185348333333
 N1 0.927052 0.372685 0.42364  -0.185348333333
 N1 0.576387 0.926919 0.62688  -0.185348333333
 N1 0.575832 0.073353 0.37356  -0.185348333333
 N1 0.424024 0.073369 0.62651  -0.185348333333
 N1 0.423602 0.926756 0.373  -0.185348333333
 N1 0.627146 0.576113 0.92695  -0.185348333333
 N1 0.372488 0.576359 0.07288  -0.185348333333
 N1 0.62722 0.423782 0.07313  -0.185348333333
 N1 0.372639 0.423716 0.9270  -0.185348333333
 N1 0.627276 0.926784 0.42405  -0.185348333333
 N1 0.372749 0.073253 0.42379  -0.185348333333
 N1 0.627541 0.073016 0.57638  -0.185348333333
 N1 0.37296 0.926626 0.57574  -0.185348333333
 N1 0.926911 0.576204 0.37294  -0.185348333333
 N1 0.073048 0.576337 0.62717  -0.185348333333
 N1 0.072918 0.423701 0.37273  -0.185348333333
 N1 0.927056 0.423843 0.62714  -0.185348333333
 N1 0.576275 0.626984 0.07303  -0.185348333333
 N1 0.576369 0.373038 0.92699  -0.185348333333
 N1 0.423669 0.627084 0.92706  -0.185348333333
 N1 0.423713 0.373029 0.07292  -0.185348333333
 N1 0.073471 0.373444 0.42403  -0.185348333333
 N1 0.926639 0.626699 0.42401  -0.185348333333
 N1 0.926524 0.373596 0.57583  -0.185348333333
 N1 0.073302 0.626837 0.5761  -0.185348333333
 N1 0.423296 0.072732 0.37270  -0.185348333333
 N1 0.423849 0.927006 0.62688  -0.185348333333
 N1 0.576214 0.926971 0.37307  -0.185348333333
 N1 0.57665 0.072896 0.62714  -0.185348333333
 N1 0.373078 0.424033 0.07325  -0.185348333333
 N1 0.627257 0.42379 0.92693  -0.185348333333
 N1 0.373034 0.576064 0.92668  -0.185348333333
 N1 0.627076 0.576138 0.07319  -0.185348333333
 N1 0.372376 0.072986 0.57612  -0.185348333333
 N1 0.627543 0.926991 0.57638  -0.185348333333
 N1 0.372113 0.927228 0.42345  -0.185348333333
 N1 0.627329 0.073136 0.42409  -0.185348333333
 N1 0.073465 0.424106 0.62656  -0.185348333333
 N1 0.926522 0.423975 0.37337  -0.185348333333
 N1 0.926661 0.57601 0.62677  -0.185348333333
 N1 0.073322 0.57587 0.37338  -0.185348333333
 N1 0.423841 0.373276 0.92678  -0.185348333333
 N1 0.423751 0.626751 0.07319  -0.185348333333
 N1 0.576165 0.373197 0.07316  -0.185348333333
 N1 0.576125 0.626735 0.92690  -0.185348333333
