#======================================================================

# CRYSTAL DATA

#----------------------------------------------------------------------

data_VESTA_phase_1


_pd_phase_name                         MOF
_cell_length_a                         15.74300
_cell_length_b                         15.75000
_cell_length_c                         20.00500
_cell_angle_alpha                      90.00100
_cell_angle_beta                       90.00000
_cell_angle_gamma                      90.00800
_symmetry_space_group_name_H-M         "P 1"
_symmetry_Int_Tables_number            1

loop_
_symmetry_equiv_pos_as_xyz
   "x, y, z"

loop_
   _atom_site_label
   _atom_site_fract_x
   _atom_site_fract_y
   _atom_site_fract_z
 _atom_site_charge
 Zn1 0.248657 0.748051 7.6e-0  0.687802539683
 Zn1 0.748433 0.248124 0.49995  0.687802539683
 Zn1 0.748652 0.248075 0.99992  0.687802539683
 Zn1 0.248433 0.748112 0.50002  0.687802539683
 Zn1 0.083444 0.915162 0.99996  0.687802539683
 Zn1 0.414996 0.581237 0.99999  0.687802539683
 Zn1 0.582306 0.081266 0.50004  0.687802539683
 Zn1 0.914754 0.414966 0.50003  0.687802539683
 Zn1 0.914992 0.081245 0.99999  0.687802539683
 Zn1 0.583332 0.415165 3.2e-0  0.687802539683
 Zn1 0.414781 0.914951 0.49994  0.687802539683
 Zn1 0.08228 0.58125 0.49993  0.687802539683
 H1 0.153934 0.959691 0.73655  0.111333928571
 H1 0.136694 0.941724 0.85036  0.111333928571
 H1 0.21014 0.055708 0.05952  0.111333928571
 H1 0.356827 0.834959 0.11581  0.111333928571
 H1 0.345223 0.537944 0.73649  0.111333928571
 H1 0.362261 0.555314 0.85034  0.111333928571
 H1 0.288923 0.440495 0.0600  0.111333928571
 H1 0.141262 0.660809 0.1156  0.111333928571
 H1 0.536949 0.154763 0.23733  0.111333928571
 H1 0.560478 0.13118 0.34972  0.111333928571
 H1 0.441289 0.206745 0.56081  0.111333928571
 H1 0.661591 0.355238 0.61537  0.111333928571
 H1 0.960303 0.342158 0.23690  0.111333928571
 H1 0.936647 0.365493 0.34938  0.111333928571
 H1 0.055909 0.290073 0.56110  0.111333928571
 H1 0.836084 0.140463 0.61497  0.111333928571
 H1 0.844937 0.458894 0.76357  0.111333928571
 H1 0.861514 0.441332 0.64973  0.111333928571
 H1 0.788904 0.555647 0.44013  0.111333928571
 H1 0.640749 0.335574 0.3845  0.111333928571
 H1 0.653251 0.037108 0.76339  0.111333928571
 H1 0.636144 0.054745 0.6495  0.111333928571
 H1 0.709109 0.940684 0.43983  0.111333928571
 H1 0.856369 0.161446 0.38443  0.111333928571
 H1 0.460722 0.654331 0.26293  0.111333928571
 H1 0.437786 0.631514 0.15034  0.111333928571
 H1 0.556123 0.706569 0.93928  0.111333928571
 H1 0.336011 0.855204 0.88461  0.111333928571
 H1 0.037587 0.842465 0.26316  0.111333928571
 H1 0.061685 0.866039 0.15072  0.111333928571
 H1 0.941781 0.790289 0.93883  0.111333928571
 H1 0.161746 0.641233 0.88440  0.111333928571
 H1 0.845269 0.037982 0.26347  0.111333928571
 H1 0.862232 0.055264 0.14960  0.111333928571
 H1 0.788898 0.940488 0.93998  0.111333928571
 H1 0.641267 0.160841 0.88429  0.111333928571
 H1 0.653897 0.459691 0.26342  0.111333928571
 H1 0.636575 0.441649 0.14963  0.111333928571
 H1 0.710037 0.555701 0.94043  0.111333928571
 H1 0.856821 0.335018 0.88420  0.111333928571
 H1 0.460313 0.842161 0.76307  0.111333928571
 H1 0.436725 0.865437 0.65057  0.111333928571
 H1 0.555889 0.790007 0.43890  0.111333928571
 H1 0.336052 0.640467 0.38499  0.111333928571
 H1 0.036879 0.654799 0.76262  0.111333928571
 H1 0.060467 0.631141 0.65026  0.111333928571
 H1 0.941254 0.706753 0.43916  0.111333928571
 H1 0.161618 0.855177 0.38458  0.111333928571
 H1 0.153234 0.537103 0.23659  0.111333928571
 H1 0.136171 0.554684 0.35040  0.111333928571
 H1 0.209068 0.440704 0.56013  0.111333928571
 H1 0.35636 0.661414 0.61554  0.111333928571
 H1 0.345012 0.958844 0.23641  0.111333928571
 H1 0.361646 0.941237 0.35023  0.111333928571
 H1 0.288986 0.055674 0.55988  0.111333928571
 H1 0.140736 0.835604 0.61537  0.111333928571
 H1 0.537563 0.342499 0.73679  0.111333928571
 H1 0.561585 0.366002 0.84925  0.111333928571
 H1 0.44179 0.290239 0.06113  0.111333928571
 H1 0.661782 0.141272 0.1155  0.111333928571
 H1 0.960771 0.154392 0.73706  0.111333928571
 H1 0.937759 0.131486 0.84963  0.111333928571
 H1 0.056147 0.206568 0.06067  0.111333928571
 H1 0.836013 0.355192 0.11538  0.111333928571
 H1 0.094306 0.094441 0.55587  0.111333928571
 H1 0.402959 0.401916 0.55600  0.111333928571
 H1 0.403864 0.094562 0.05599  0.111333928571
 H1 0.09478 0.401567 0.05602  0.111333928571
 H1 0.903829 0.59457 0.9439  0.111333928571
 H1 0.594743 0.901581 0.94396  0.111333928571
 H1 0.594261 0.59439 0.4441  0.111333928571
 H1 0.902965 0.901904 0.44395  0.111333928571
 C1 0.116849 0.008298 0.71096  -0.219263293651
 C2 0.131607 0.022168 0.64279  0.00681795634921
 C3 0.086327 0.986741 0.86117  0.0111929563492
 C2 0.191334 0.96851 0.60510  0.00681795634921
 C3 0.237244 0.992865 0.06630  0.0111929563492
 C3 0.310606 0.879929 0.09655  0.0111929563492
 C1 0.381902 0.489079 0.71087  -0.219263293651
 C2 0.366484 0.47483 0.64283  0.00681795634921
 C3 0.412683 0.510335 0.8610  0.0111929563492
 C2 0.306415 0.528261 0.60525  0.00681795634921
 C3 0.261529 0.503214 0.06663  0.0111929563492
 C3 0.187674 0.615954 0.09653  0.0111929563492
 C1 0.489126 0.117068 0.21139  -0.219263293651
 C2 0.475448 0.13201 0.14323  0.00681795634921
 C3 0.513082 0.083145 0.36082  0.0111929563492
 C2 0.528903 0.192189 0.10580  0.00681795634921
 C3 0.503995 0.234338 0.56716  0.0111929563492
 C3 0.616754 0.3086 0.59653  0.0111929563492
 C1 0.008491 0.379596 0.21112  -0.219263293651
 C2 0.022467 0.364529 0.14301  0.00681795634921
 C3 0.984152 0.413371 0.36062  0.0111929563492
 C2 0.968957 0.304473 0.10547  0.00681795634921
 C3 0.993275 0.262195 0.56727  0.0111929563492
 C3 0.880763 0.187345 0.59627  0.0111929563492
 C1 0.881723 0.507768 0.78909  -0.219263293651
 C2 0.866837 0.521807 0.85721  0.00681795634921
 C3 0.911841 0.486382 0.63888  0.0111929563492
 C2 0.807086 0.468199 0.89491  0.00681795634921
 C3 0.76138 0.492976 0.43352  0.0111929563492
 C3 0.687287 0.380341 0.40365  0.0111929563492
 C1 0.616367 0.988355 0.7890  -0.219263293651
 C2 0.631534 0.974236 0.85709  0.00681795634921
 C3 0.585661 0.009822 0.63885  0.0111929563492
 C2 0.691462 0.027809 0.89470  0.00681795634921
 C3 0.736319 0.003527 0.43325  0.0111929563492
 C3 0.809978 0.116467 0.40345  0.0111929563492
 C1 0.508819 0.616886 0.28877  -0.219263293651
 C2 0.522444 0.631739 0.35696  0.00681795634921
 C3 0.485094 0.583427 0.13918  0.0111929563492
 C2 0.468848 0.691704 0.3944  0.00681795634921
 C3 0.493455 0.73423 0.93292  0.0111929563492
 C3 0.380796 0.808564 0.90350  0.0111929563492
 C1 0.989484 0.880023 0.28892  -0.219263293651
 C2 0.975307 0.864868 0.35699  0.00681795634921
 C3 0.014167 0.913886 0.13946  0.0111929563492
 C2 0.028613 0.804617 0.39447  0.00681795634921
 C3 0.00443 0.762509 0.93255  0.0111929563492
 C3 0.117004 0.687937 0.90326  0.0111929563492
 C1 0.881933 0.989077 0.28909  -0.219263293651
 C2 0.866507 0.974827 0.35713  0.00681795634921
 C3 0.912683 0.010315 0.1388  0.0111929563492
 C2 0.806441 0.028286 0.39471  0.00681795634921
 C3 0.761514 0.00324 0.93335  0.0111929563492
 C3 0.687672 0.115983 0.90344  0.0111929563492
 C1 0.616797 0.508254 0.28902  -0.219263293651
 C2 0.631556 0.522118 0.35719  0.00681795634921
 C3 0.58624 0.486699 0.13882  0.0111929563492
 C2 0.691296 0.468495 0.39487  0.00681795634921
 C3 0.737164 0.492893 0.93366  0.0111929563492
 C3 0.810577 0.379977 0.90345  0.0111929563492
 C1 0.508477 0.879597 0.78885  -0.219263293651
 C2 0.522443 0.864537 0.8569  0.00681795634921
 C3 0.48421 0.913336 0.63934  0.0111929563492
 C2 0.468955 0.80448 0.89450  0.00681795634921
 C3 0.493272 0.762147 0.43272  0.0111929563492
 C3 0.380743 0.687333 0.40370  0.0111929563492
 C1 0.989044 0.617098 0.7885  -0.219263293651
 C2 0.975388 0.632031 0.8567  0.00681795634921
 C3 0.013048 0.583131 0.63915  0.0111929563492
 C2 0.028885 0.692201 0.89417  0.00681795634921
 C3 0.003991 0.734328 0.43281  0.0111929563492
 C3 0.116769 0.808555 0.40343  0.0111929563492
 C1 0.116368 0.488366 0.21097  -0.219263293651
 C2 0.13155 0.474237 0.14289  0.00681795634921
 C3 0.085665 0.509784 0.36113  0.0111929563492
 C2 0.191474 0.527781 0.10528  0.00681795634921
 C3 0.236286 0.503512 0.5667  0.0111929563492
 C3 0.309962 0.616441 0.5965  0.0111929563492
 C1 0.3818 0.007745 0.21088  -0.219263293651
 C2 0.366899 0.021788 0.14276  0.00681795634921
 C3 0.411945 0.986315 0.36108  0.0111929563492
 C2 0.307141 0.968155 0.10507  0.00681795634921
 C3 0.261434 0.99298 0.56647  0.0111929563492
 C3 0.187295 0.880361 0.59629  0.0111929563492
 C1 0.489473 0.380046 0.71103  -0.219263293651
 C2 0.475301 0.364889 0.64296  0.00681795634921
 C3 0.514091 0.413877 0.8605  0.0111929563492
 C2 0.528599 0.304644 0.60549  0.00681795634921
 C3 0.504425 0.262481 0.0674  0.0111929563492
 C3 0.617024 0.187958 0.09671  0.0111929563492
 C1 0.008882 0.116943 0.71121  -0.219263293651
 C2 0.022497 0.131792 0.64303  0.00681795634921
 C3 0.985096 0.083431 0.86080  0.0111929563492
 C2 0.968865 0.191745 0.60550  0.00681795634921
 C3 0.993455 0.234229 0.06704  0.0111929563492
 C3 0.880797 0.308557 0.0964  0.0111929563492
 C2 0.056378 0.056038 0.74645  0.00681795634921
 C1 0.085156 0.085156 0.609  -0.219263293651
 C2 0.043409 0.042877 0.8182  0.00681795634921
 C2 0.442447 0.441294 0.74627  0.00681795634921
 C1 0.412519 0.411502 0.60945  -0.219263293651
 C2 0.455739 0.45449 0.8180  0.00681795634921
 C2 0.441983 0.055741 0.24646  0.00681795634921
 C1 0.413038 0.085138 0.10950  -0.219263293651
 C2 0.454924 0.042492 0.31823  0.00681795634921
 C2 0.055778 0.44065 0.2463  0.00681795634921
 C1 0.08532 0.411066 0.10949  -0.219263293651
 C2 0.042604 0.453868 0.3181  0.00681795634921
 C2 0.941896 0.555768 0.75350  0.00681795634921
 C1 0.912987 0.585152 0.89047  -0.219263293651
 C2 0.954834 0.542512 0.68173  0.00681795634921
 C2 0.555776 0.940642 0.75360  0.00681795634921
 C1 0.585292 0.911075 0.89049  -0.219263293651
 C2 0.542614 0.953856 0.68182  0.00681795634921
 C2 0.556317 0.555987 0.25353  0.00681795634921
 C1 0.585106 0.585104 0.39059  -0.219263293651
 C2 0.543348 0.542833 0.1817  0.00681795634921
 C2 0.942469 0.941281 0.25369  0.00681795634921
 C1 0.91253 0.911491 0.39050  -0.219263293651
 C2 0.955763 0.954471 0.18192  0.00681795634921
 N1 0.056017 0.993578 0.92403  -0.247330793651
 N1 0.201676 0.924347 0.0367  -0.247330793651
 N1 0.247378 0.853887 0.05566  -0.247330793651
 N1 0.4429 0.503285 0.92394  -0.247330793651
 N1 0.296842 0.57176 0.0369  -0.247330793651
 N1 0.250801 0.642109 0.05560  -0.247330793651
 N1 0.505122 0.053555 0.42379  -0.247330793651
 N1 0.572539 0.199063 0.53743  -0.247330793651
 N1 0.642878 0.245331 0.55577  -0.247330793651
 N1 0.992048 0.44283 0.42364  -0.247330793651
 N1 0.924689 0.297161 0.53737  -0.247330793651
 N1 0.854489 0.250525 0.55548  -0.247330793651
 N1 0.94201 0.493257 0.57598  -0.247330793651
 N1 0.796541 0.424384 0.46322  -0.247330793651
 N1 0.750378 0.354113 0.44458  -0.247330793651
 N1 0.555331 0.0 0.57599  -0.247330793651
 N1 0.700697 0.071971 0.46284  -0.247330793651
 N1 0.746622 0.142435 0.44424  -0.247330793651
 N1 0.492862 0.553801 0.07619  -0.247330793651
 N1 0.424868 0.699108 0.96272  -0.247330793651
 N1 0.354583 0.745421 0.94436  -0.247330793651
 N1 0.0 0.94318 0.07639  -0.247330793651
 N1 0.073017 0.797488 0.96245  -0.247330793651
 N1 0.14323 0.751027 0.94416  -0.247330793651
 N1 0.942909 0.0 0.0760  -0.247330793651
 N1 0.796834 0.071787 0.96303  -0.247330793651
 N1 0.750801 0.142138 0.94437  -0.247330793651
 N1 0.555941 0.493527 0.07595  -0.247330793651
 N1 0.701602 0.424373 0.96318  -0.247330793651
 N1 0.747341 0.353924 0.94432  -0.247330793651
 N1 0.492079 0.942802 0.57632  -0.247330793651
 N1 0.42469 0.797136 0.46261  -0.247330793651
 N1 0.35448 0.750522 0.44449  -0.247330793651
 N1 0.0 0.553537 0.57618  -0.247330793651
 N1 0.072525 0.699047 0.46255  -0.247330793651
 N1 0.142876 0.745294 0.44420  -0.247330793651
 N1 0.055325 0.502904 0.42398  -0.247330793651
 N1 0.20067 0.571963 0.53713  -0.247330793651
 N1 0.246605 0.642421 0.55573  -0.247330793651
 N1 0.442095 0.993242 0.42398  -0.247330793651
 N1 0.296577 0.924386 0.53675  -0.247330793651
 N1 0.250384 0.854124 0.55537  -0.247330793651
 N1 0.506133 0.443183 0.92357  -0.247330793651
 N1 0.573 0.297482 0.03752  -0.247330793651
 N1 0.64323 0.251053 0.05581  -0.247330793651
 N1 0.992896 0.05381 0.92378  -0.247330793651
 N1 0.924866 0.199109 0.03724  -0.247330793651
 N1 0.854581 0.245419 0.05561  -0.247330793651
