#======================================================================

# CRYSTAL DATA

#----------------------------------------------------------------------

data_VESTA_phase_1


_pd_phase_name                         MOF
_cell_length_a                         17.29300
_cell_length_b                         13.05600
_cell_length_c                         15.04100
_cell_angle_alpha                      64.20800
_cell_angle_beta                       83.18900
_cell_angle_gamma                      75.68100
_symmetry_space_group_name_H-M         "P 1"
_symmetry_Int_Tables_number            1

loop_
_symmetry_equiv_pos_as_xyz
   "x, y, z"

loop_
   _atom_site_label
   _atom_site_fract_x
   _atom_site_fract_y
   _atom_site_fract_z
 _atom_site_charge
 Zn1 0.39703 0.097719 0.81991  0.834714272727
 Zn1 0.897044 0.09772 0.81991  0.834714272727
 Zn1 0.153186 0.910802 0.18159  0.834714272727
 Zn1 0.653199 0.910803 0.18159  0.834714272727
 H1 0.022795 0.062819 0.48883  0.103537022727
 H1 0.522803 0.062825 0.48882  0.103537022727
 H1 0.151295 0.042975 0.39855  0.103537022727
 H1 0.651302 0.042976 0.3985  0.103537022727
 H1 0.275292 0.0 0.64659  0.103537022727
 H1 0.775302 0.0 0.64659  0.103537022727
 H1 0.145365 0.026757 0.73588  0.103537022727
 H1 0.645374 0.026753 0.73588  0.103537022727
 H1 0.351536 0.99657 0.51270  0.103537022727
 H1 0.851545 0.996573 0.51270  0.103537022727
 H1 0.265813 0.0 0.34078  0.103537022727
 H1 0.765824 0.0 0.34078  0.103537022727
 H1 0.347262 0.0 0.19730  0.103537022727
 H1 0.847274 0.0 0.19730  0.103537022727
 H1 0.480862 0.98093 0.12175  0.103537022727
 H1 0.980876 0.980936 0.12175  0.103537022727
 H1 0.094489 0.877675 0.38494  0.103537022727
 H1 0.594506 0.877668 0.38494  0.103537022727
 H1 0.466139 0.912135 0.47080  0.103537022727
 H1 0.966145 0.912135 0.47080  0.103537022727
 H1 0.210248 0.251416 0.94451  0.103537022727
 H1 0.710262 0.251416 0.94451  0.103537022727
 H1 0.256391 0.436847 0.87917  0.103537022727
 H1 0.756405 0.436847 0.87917  0.103537022727
 H1 0.258846 0.407465 0.17628  0.103537022727
 H1 0.758857 0.407466 0.17628  0.103537022727
 H1 0.212422 0.223057 0.23945  0.103537022727
 H1 0.712434 0.223057 0.23945  0.103537022727
 H1 0.295917 0.581609 0.9001  0.103537022727
 H1 0.795929 0.581611 0.90010  0.103537022727
 H1 0.291156 0.572548 0.1088  0.103537022727
 H1 0.79117 0.572546 0.10884  0.103537022727
 H1 0.344322 0.728271 0.83299  0.103537022727
 H1 0.844335 0.728273 0.83299  0.103537022727
 H1 0.383183 0.919289 0.76518  0.103537022727
 H1 0.883195 0.919291 0.76518  0.103537022727
 H1 0.353414 0.932864 0.03785  0.103537022727
 H1 0.853426 0.932862 0.0378  0.103537022727
 H1 0.314554 0.742756 0.11828  0.103537022727
 H1 0.814567 0.742754 0.11828  0.103537022727
 H1 0.273257 0.551695 0.51173  0.103537022727
 H1 0.773269 0.551689 0.5117  0.103537022727
 H1 0.399781 0.443778 0.60275  0.103537022727
 H1 0.899793 0.44378 0.60275  0.103537022727
 H1 0.029267 0.650415 0.35184  0.103537022727
 H1 0.529281 0.650409 0.3518  0.103537022727
 H1 0.401293 0.756483 0.2619  0.103537022727
 H1 0.901304 0.756484 0.2619  0.103537022727
 H1 0.102469 0.508484 0.48717  0.103537022727
 H1 0.602484 0.508483 0.48717  0.103537022727
 H1 0.012915 0.34537 0.66048  0.103537022727
 H1 0.51293 0.345354 0.66047  0.103537022727
 H1 0.091368 0.217849 0.80396  0.103537022727
 H1 0.591381 0.217845 0.80396  0.103537022727
 H1 0.223477 0.106942 0.88015  0.103537022727
 H1 0.723491 0.106946 0.88015  0.103537022727
 H1 0.34261 0.266144 0.61711  0.103537022727
 H1 0.842624 0.266145 0.61711  0.103537022727
 H1 0.216043 0.384859 0.53075  0.103537022727
 H1 0.716057 0.384851 0.5307  0.103537022727
 H1 0.460638 0.195446 0.05561  0.103537022727
 H1 0.960654 0.195446 0.05561  0.103537022727
 H1 0.009431 0.313611 0.12005  0.103537022727
 H1 0.509441 0.313612 0.12005  0.103537022727
 H1 0.006069 0.587353 0.8246  0.103537022727
 H1 0.50608 0.587352 0.82464  0.103537022727
 H1 0.45725 0.467866 0.76233  0.103537022727
 H1 0.957263 0.467869 0.76233  0.103537022727
 H1 0.051327 0.478147 0.09823  0.103537022727
 H1 0.551345 0.478144 0.09823  0.103537022727
 H1 0.034589 0.686446 0.89343  0.103537022727
 H1 0.53459 0.686451 0.89343  0.103537022727
 H1 0.098147 0.557576 0.1647  0.103537022727
 H1 0.598153 0.557579 0.16476  0.103537022727
 H1 0.140893 0.676938 0.23277  0.103537022727
 H1 0.640906 0.676938 0.23277  0.103537022727
 H1 0.104762 0.969594 0.96552  0.103537022727
 H1 0.604778 0.969593 0.96551  0.103537022727
 H1 0.060637 0.864403 0.88525  0.103537022727
 H1 0.560646 0.864403 0.88525  0.103537022727
 C1 0.99715 0.05455 0.671  0.625946772727
 C1 0.497163 0.054524 0.6718  0.625946772727
 C2 0.075979 0.043713 0.61874  0.0315342727273
 C2 0.575984 0.043765 0.61872  0.0315342727273
 C3 0.078812 0.049025 0.5230  -0.123129789773
 C3 0.578822 0.048997 0.52305  -0.123129789773
 C3 0.150946 0.037627 0.47300  -0.123129789773
 C3 0.650953 0.037647 0.47299  -0.123129789773
 C2 0.223453 0.020321 0.5176  0.0315342727273
 C2 0.723462 0.020289 0.51761  0.0315342727273
 C3 0.219961 0.017991 0.61265  -0.123129789773
 C3 0.719969 0.018007 0.61264  -0.123129789773
 C3 0.147535 0.02887 0.6625  -0.123129789773
 C3 0.647546 0.028838 0.66255  -0.123129789773
 C3 0.301422 0.0 0.47126  -0.123129789773
 C3 0.801429 0.0 0.47125  -0.123129789773
 C3 0.315634 0.992562 0.3844  -0.123129789773
 C3 0.815642 0.992549 0.38441  -0.123129789773
 C2 0.394095 0.970921 0.34091  0.0315342727273
 C2 0.894103 0.97091 0.34091  0.0315342727273
 C3 0.40068 0.988069 0.24126  -0.123129789773
 C3 0.900692 0.988079 0.2412  -0.123129789773
 C4 0.475062 0.966856 0.1990  0.168250522727
 C4 0.975074 0.966852 0.19903  0.168250522727
 C4 0.038253 0.910432 0.34590  0.168250522727
 C4 0.53827 0.910434 0.34589  0.168250522727
 C3 0.466181 0.930316 0.39293  -0.123129789773
 C3 0.966189 0.930327 0.39293  -0.123129789773
 C1 0.183183 0.111584 0.1380  0.625946772727
 C1 0.683197 0.111583 0.13803  0.625946772727
 C2 0.208352 0.225546 0.09608  0.0315342727273
 C2 0.708362 0.225548 0.09608  0.0315342727273
 C3 0.220857 0.286452 0.99452  -0.123129789773
 C3 0.720871 0.286452 0.99452  -0.123129789773
 C3 0.24635 0.390495 0.95836  -0.123129789773
 C3 0.746362 0.390496 0.95836  -0.123129789773
 C2 0.260474 0.436917 0.02237  0.0315342727273
 C2 0.760488 0.436917 0.02237  0.0315342727273
 C3 0.247723 0.374818 0.12457  -0.123129789773
 C3 0.747734 0.374819 0.12457  -0.123129789773
 C3 0.221964 0.271256 0.16056  -0.123129789773
 C3 0.721977 0.271256 0.16056  -0.123129789773
 C3 0.287085 0.545997 0.98019  -0.123129789773
 C3 0.787097 0.545998 0.98019  -0.123129789773
 C3 0.300581 0.605938 0.02898  -0.123129789773
 C3 0.800594 0.605938 0.02898  -0.123129789773
 C2 0.325429 0.716387 0.98305  0.0315342727273
 C2 0.825442 0.716386 0.98305  0.0315342727273
 C3 0.345355 0.769621 0.88186  -0.123129789773
 C3 0.845367 0.769623 0.88186  -0.123129789773
 C4 0.367158 0.875854 0.84310  0.168250522727
 C4 0.867171 0.875856 0.84310  0.168250522727
 C4 0.351535 0.883804 0.99546  0.168250522727
 C4 0.851548 0.883803 0.9954  0.168250522727
 C3 0.3298 0.776877 0.03979  -0.123129789773
 C3 0.829813 0.776876 0.03979  -0.123129789773
 C1 0.251653 0.721657 0.32720  0.625946772727
 C1 0.75166 0.72167 0.32721  0.625946772727
 C2 0.329321 0.659173 0.38046  0.0315342727273
 C2 0.829339 0.659129 0.38044  0.0315342727273
 C3 0.330036 0.571118 0.47707  -0.123129789773
 C3 0.830046 0.571142 0.47708  -0.123129789773
 C3 0.401051 0.510939 0.52754  -0.123129789773
 C3 0.901065 0.510923 0.5275  -0.123129789773
 C2 0.474531 0.536944 0.48229  0.0315342727273
 C2 0.974542 0.536971 0.48230  0.0315342727273
 C3 0.473162 0.627375 0.38629  -0.123129789773
 C3 0.973175 0.627362 0.38628  -0.123129789773
 C3 0.401839 0.686999 0.33  -0.123129789773
 C3 0.901848 0.687025 0.33601  -0.123129789773
 C3 0.051449 0.473666 0.5290  -0.123129789773
 C3 0.55146 0.473682 0.52904  -0.123129789773
 C3 0.063705 0.378409 0.61664  -0.123129789773
 C3 0.563719 0.378399 0.61664  -0.123129789773
 C2 0.141225 0.31407 0.66048  0.0315342727273
 C2 0.641237 0.314052 0.66047  0.0315342727273
 C3 0.145732 0.232249 0.76021  -0.123129789773
 C3 0.645747 0.232258 0.76021  -0.123129789773
 C4 0.219236 0.169568 0.80277  0.168250522727
 C4 0.71925 0.16956 0.80277  0.168250522727
 C4 0.285539 0.259684 0.65599  0.168250522727
 C4 0.785552 0.259675 0.65599  0.168250522727
 C3 0.214418 0.325684 0.60866  -0.123129789773
 C3 0.714432 0.325691 0.60866  -0.123129789773
 C1 0.428672 0.253851 0.86332  0.625946772727
 C1 0.92869 0.253851 0.86332  0.625946772727
 C2 0.45563 0.324358 0.90498  0.0315342727273
 C2 0.955638 0.324363 0.90498  0.0315342727273
 C3 0.470531 0.281405 0.00582  -0.123129789773
 C3 0.97055 0.281403 0.00582  -0.123129789773
 C3 0.997499 0.348179 0.04147  -0.123129789773
 C3 0.497512 0.348178 0.04147  -0.123129789773
 C2 0.010453 0.459904 0.97771  0.0315342727273
 C2 0.51046 0.459906 0.97771  0.0315342727273
 C3 0.495489 0.502175 0.87621  -0.123129789773
 C3 0.995501 0.502177 0.87621  -0.123129789773
 C3 0.468412 0.435628 0.84072  -0.123129789773
 C3 0.96843 0.435626 0.84072  -0.123129789773
 C3 0.038281 0.525773 0.01945  -0.123129789773
 C3 0.538294 0.525771 0.01944  -0.123129789773
 C3 0.048337 0.636831 0.97184  -0.123129789773
 C3 0.548347 0.636831 0.97184  -0.123129789773
 C2 0.075239 0.699502 0.01754  0.0315342727273
 C2 0.575239 0.699507 0.01754  0.0315342727273
 C3 0.098468 0.648518 0.11715  -0.123129789773
 C3 0.598485 0.648516 0.11714  -0.123129789773
 C4 0.122705 0.713756 0.15592  0.168250522727
 C4 0.622711 0.713759 0.15592  0.168250522727
 C4 0.10318 0.877722 0.  0.168250522727
 C4 0.603188 0.877724 0.  0.168250522727
 C3 0.078523 0.817688 0.96237  -0.123129789773
 C3 0.578542 0.817685 0.96237  -0.123129789773
 N1 0.043604 0.928475 0.24986  -0.348678227273
 N1 0.543618 0.928464 0.24986  -0.348678227273
 N1 0.370144 0.93369 0.89839  -0.348678227273
 N1 0.870156 0.93369 0.89839  -0.348678227273
 N1 0.28886 0.182315 0.75211  -0.348678227273
 N1 0.788874 0.182324 0.75211  -0.348678227273
 N1 0.12515 0.827525 0.10216  -0.348678227273
 N1 0.625169 0.827524 0.10215  -0.348678227273
 O1 2e-06 0.062157 0.75500  -0.581288227273
 O1 0.500014 0.06216 0.75500  -0.581288227273
 O2 0.435029 0.05496 0.63644  -0.594773227273
 O2 0.935048 0.054949 0.63644  -0.594773227273
 O1 0.177154 0.065698 0.07866  -0.581288227273
 O1 0.677167 0.065699 0.07865  -0.581288227273
 O2 0.17026 0.061917 0.22966  -0.594773227273
 O2 0.670272 0.061918 0.22966  -0.594773227273
 O1 0.255948 0.811779 0.2435  -0.581288227273
 O1 0.755958 0.811775 0.24358  -0.581288227273
 O2 0.188916 0.68658 0.36272  -0.594773227273
 O2 0.688932 0.686563 0.36272  -0.594773227273
 O1 0.423444 0.147732 0.92199  -0.581288227273
 O1 0.923457 0.147734 0.92  -0.581288227273
 O2 0.413659 0.297919 0.77253  -0.594773227273
 O2 0.913671 0.297922 0.77253  -0.594773227273
