#======================================================================

# CRYSTAL DATA

#----------------------------------------------------------------------

data_VESTA_phase_1


_pd_phase_name                         MOF
_cell_length_a                         13.70100
_cell_length_b                         13.84600
_cell_length_c                         14.05700
_cell_angle_alpha                      108.95000
_cell_angle_beta                       90.08700
_cell_angle_gamma                      89.96700
_symmetry_space_group_name_H-M         "P 1"
_symmetry_Int_Tables_number            1

loop_
_symmetry_equiv_pos_as_xyz
   "x, y, z"

loop_
   _atom_site_label
   _atom_site_fract_x
   _atom_site_fract_y
   _atom_site_fract_z
 _atom_site_charge
 Zn1 0.558196 0.412038 0.96295  0.940349916667
 Zn1 0.058234 0.591385 0.53748  0.940349916667
 Zn1 0.441895 0.591407 0.03733  0.940349916667
 Zn1 0.94194 0.412202 0.46270  0.940349916667
 H1 0.241785 0.686727 0.05042  0.118438488095
 H1 0.16873 0.863371 0.11701  0.118438488095
 H1 0.457046 0.974263 0.22464  0.118438488095
 H1 0.515553 0.794808 0.15892  0.118438488095
 H1 0.421311 0.229851 0.11397  0.118438488095
 H1 0.272454 0.50962 0.26790  0.118438488095
 H1 0.189064 0.232022 0.32236  0.118438488095
 H2 0.388207 0.086907 0.15875  0.306739916667
 H1 0.741642 0.317647 0.44990  0.118438488095
 H1 0.668387 0.141005 0.3845  0.118438488095
 H1 0.955932 0.029516 0.27533  0.118438488095
 H1 0.014681 0.209032 0.33995  0.118438488095
 H1 0.921301 0.774241 0.38711  0.118438488095
 H1 0.772567 0.494509 0.23253  0.118438488095
 H1 0.688497 0.772357 0.17873  0.118438488095
 H2 0.887694 0.917454 0.34261  0.306739916667
 H1 0.758023 0.316545 0.95012  0.118438488095
 H1 0.830871 0.139727 0.88430  0.118438488095
 H1 0.54241 0.028867 0.77714  0.118438488095
 H1 0.484102 0.208405 0.84222  0.118438488095
 H1 0.578576 0.772393 0.88640  0.118438488095
 H1 0.728754 0.493531 0.73230  0.118438488095
 H1 0.810823 0.771788 0.6784  0.118438488095
 H2 0.611244 0.915835 0.84198  0.306739916667
 H1 0.258795 0.685865 0.55068  0.118438488095
 H1 0.332062 0.862475 0.61641  0.118438488095
 H1 0.044625 0.973755 0.72615  0.118438488095
 H1 0.985843 0.794259 0.66110  0.118438488095
 H1 0.078948 0.228661 0.61323  0.118438488095
 H1 0.227079 0.508808 0.76772  0.118438488095
 H1 0.311309 0.231402 0.8223  0.118438488095
 H2 0.112304 0.085819 0.65852  0.306739916667
 C1 0.285756 0.753216 0.09025  0.166592416667
 C2 0.246135 0.850734 0.12614  -0.132503583333
 C3 0.307258 0.933603 0.17306  -0.0682134166667
 C2 0.405962 0.914014 0.18558  -0.132503583333
 C1 0.439835 0.813984 0.14951  0.166592416667
 C4 0.263653 0.0392 0.20866  0.508734916667
 C5 0.307519 0.218365 0.21751  0.189699916667
 C2 0.365647 0.26987 0.16777  -0.132503583333
 C3 0.352322 0.374162 0.18459  -0.0682134166667
 C2 0.282292 0.4282 0.25398  -0.132503583333
 C3 0.224039 0.376506 0.30327  -0.0682134166667
 C2 0.235517 0.271456 0.28455  -0.132503583333
 C6 0.41142 0.424909 0.12404  0.697559916667
 C6 0.146451 0.431289 0.37630  0.697559916667
 C1 0.785365 0.251036 0.40995  0.166592416667
 C2 0.745657 0.15353 0.37477  -0.132503583333
 C3 0.806569 0.070575 0.32769  -0.0682134166667
 C2 0.905111 0.089952 0.31446  -0.132503583333
 C1 0.939055 0.189973 0.34985  0.166592416667
 C4 0.762979 0.965009 0.2924  0.508734916667
 C5 0.80716 0.785876 0.28362  0.189699916667
 C2 0.86557 0.734284 0.33321  -0.132503583333
 C3 0.852412 0.629936 0.31606  -0.0682134166667
 C2 0.7823 0.575953 0.24659  -0.132503583333
 C3 0.723828 0.627698 0.19739  -0.0682134166667
 C2 0.735107 0.732808 0.21642  -0.132503583333
 C6 0.911719 0.578915 0.3763  0.697559916667
 C6 0.646195 0.572793 0.12429  0.697559916667
 C1 0.713987 0.250006 0.91058  0.166592416667
 C2 0.753487 0.152423 0.8751  -0.132503583333
 C3 0.692281 0.069567 0.82843  -0.0682134166667
 C2 0.593566 0.089141 0.81596  -0.132503583333
 C1 0.559817 0.189232 0.8516  0.166592416667
 C4 0.735948 0.964037 0.79276  0.508734916667
 C5 0.692388 0.784678 0.78319  0.189699916667
 C2 0.634457 0.732763 0.83268  -0.132503583333
 C3 0.648305 0.62852 0.81569  -0.0682134166667
 C2 0.718514 0.574914 0.74632  -0.132503583333
 C3 0.77641 0.626988 0.69715  -0.0682134166667
 C2 0.764544 0.732017 0.71610  -0.132503583333
 C6 0.589643 0.577252 0.87602  0.697559916667
 C6 0.853885 0.572506 0.62390  0.697559916667
 C1 0.215082 0.752425 0.59080  0.166592416667
 C2 0.254799 0.849932 0.62619  -0.132503583333
 C3 0.193891 0.932856 0.67340  -0.0682134166667
 C2 0.095407 0.913378 0.686  -0.132503583333
 C1 0.061446 0.813376 0.65117  0.166592416667
 C4 0.237301 0.038521 0.7084  0.508734916667
 C5 0.192818 0.2175 0.7171  0.189699916667
 C2 0.134505 0.26884 0.66724  -0.132503583333
 C3 0.147537 0.373178 0.68421  -0.0682134166667
 C2 0.217483 0.427369 0.75379  -0.132503583333
 C3 0.275974 0.375859 0.80322  -0.0682134166667
 C2 0.264731 0.27078 0.78445  -0.132503583333
 C6 0.088362 0.423961 0.6236  0.697559916667
 C6 0.353597 0.430962 0.87627  0.697559916667
 N1 0.381191 0.735007 0.10143  -0.312760083333
 N2 0.325607 0.113009 0.19768  -0.407600083333
 N1 0.880634 0.269047 0.39801  -0.312760083333
 N2 0.825007 0.89129 0.3037  -0.407600083333
 N1 0.618598 0.268234 0.8992  -0.312760083333
 N2 0.674006 0.890004 0.80326  -0.407600083333
 N1 0.119806 0.734363 0.60268  -0.312760083333
 N2 0.175004 0.112106 0.69735  -0.407600083333
 O1 0.179936 0.054417 0.24261  -0.502520083333
 O2 0.479784 0.372042 0.07089  -0.603215083333
 O2 0.386977 0.51522 0.12914  -0.603215083333
 O2 0.162248 0.523658 0.4293  -0.603215083333
 O2 0.070725 0.379113 0.37923  -0.603215083333
 O1 0.679243 0.949686 0.25834  -0.502520083333
 O2 0.98045 0.631458 0.42930  -0.603215083333
 O2 0.887033 0.488693 0.37116  -0.603215083333
 O2 0.661849 0.480279 0.07165  -0.603215083333
 O2 0.570597 0.625074 0.12088  -0.603215083333
 O1 0.819746 0.949046 0.75899  -0.502520083333
 O2 0.520287 0.629154 0.92828  -0.603215083333
 O2 0.615387 0.487473 0.87153  -0.603215083333
 O2 0.83815 0.480114 0.57085  -0.603215083333
 O2 0.929454 0.624851 0.6208  -0.603215083333
 O1 0.321131 0.054131 0.7422  -0.502520083333
 O2 0.019793 0.371262 0.57050  -0.603215083333
 O2 0.112907 0.514216 0.62875  -0.603215083333
 O2 0.337624 0.523278 0.92931  -0.603215083333
 O2 0.429631 0.379075 0.879  -0.603215083333
