#======================================================================

# CRYSTAL DATA

#----------------------------------------------------------------------

data_VESTA_phase_1


_pd_phase_name                         MOF
_cell_length_a                         18.42300
_cell_length_b                         18.43000
_cell_length_c                         18.43000
_cell_angle_alpha                      60.18700
_cell_angle_beta                       60.17500
_cell_angle_gamma                      60.17700
_symmetry_space_group_name_H-M         "P 1"
_symmetry_Int_Tables_number            1

loop_
_symmetry_equiv_pos_as_xyz
   "x, y, z"

loop_
   _atom_site_label
   _atom_site_fract_x
   _atom_site_fract_y
   _atom_site_fract_z
 _atom_site_charge
 Zn1 0.206677 0.380411 0.20668  1.12624679245
 Zn1 0.380496 0.206695 0.20669  1.12624679245
 Zn1 0.206252 0.206372 0.20636  1.12624679245
 Zn1 0.20668 0.206691 0.38041  1.12624679245
 Zn1 0.619517 0.793298 0.79328  1.12624679245
 Zn1 0.793336 0.619581 0.79329  1.12624679245
 Zn1 0.793761 0.79362 0.7936  1.12624679245
 Zn1 0.793333 0.793301 0.61956  1.12624679245
 H1 0.048444 0.568033 0.04845  0.116163459119
 H1 0.568201 0.048087 0.33571  0.116163459119
 H1 0.047708 0.33573 0.04772  0.116163459119
 H1 0.335643 0.04817 0.56807  0.116163459119
 H1 0.047703 0.047733 0.33572  0.116163459119
 H1 0.568196 0.33572 0.04808  0.116163459119
 H1 0.048441 0.048458 0.56802  0.116163459119
 H1 0.335642 0.568073 0.04817  0.116163459119
 H1 0.048132 0.33572 0.5680  0.116163459119
 H1 0.568142 0.048395 0.04840  0.116163459119
 H1 0.048138 0.568083 0.3357  0.116163459119
 H1 0.335657 0.047757 0.04776  0.116163459119
 H1 0.43187 0.951598 0.95157  0.116163459119
 H1 0.951875 0.43191 0.6642  0.116163459119
 H1 0.664355 0.952235 0.95221  0.116163459119
 H1 0.95188 0.664273 0.431  0.116163459119
 H1 0.952308 0.952262 0.66425  0.116163459119
 H1 0.66437 0.431921 0.95180  0.116163459119
 H1 0.951569 0.951537 0.43195  0.116163459119
 H1 0.431816 0.664273 0.95189  0.116163459119
 H1 0.66437 0.951824 0.43190  0.116163459119
 H1 0.951568 0.43196 0.95152  0.116163459119
 H1 0.431811 0.951906 0.66426  0.116163459119
 H1 0.952305 0.664264 0.9522  0.116163459119
 C1 0.026835 0.538993 0.02684  -0.0683032075472
 C1 0.5391 0.026639 0.40767  -0.0683032075472
 C1 0.026429 0.407691 0.02644  -0.0683032075472
 C1 0.407647 0.02668 0.53902  -0.0683032075472
 C1 0.026461 0.026419 0.40768  -0.0683032075472
 C1 0.539098 0.407684 0.02664  -0.0683032075472
 C1 0.026869 0.026815 0.53898  -0.0683032075472
 C1 0.407646 0.539028 0.0266  -0.0683032075472
 C1 0.026627 0.407685 0.53902  -0.0683032075472
 C1 0.539051 0.02684 0.02679  -0.0683032075472
 C1 0.02663 0.539031 0.40767  -0.0683032075472
 C1 0.407656 0.026488 0.02644  -0.0683032075472
 C1 0.460961 0.973153 0.97318  -0.0683032075472
 C1 0.973382 0.460961 0.59230  -0.0683032075472
 C1 0.592356 0.973504 0.97353  -0.0683032075472
 C1 0.973385 0.592308 0.46095  -0.0683032075472
 C1 0.973551 0.973576 0.59229  -0.0683032075472
 C1 0.592366 0.460966 0.97329  -0.0683032075472
 C1 0.973143 0.97318 0.46099  -0.0683032075472
 C1 0.460914 0.592309 0.97333  -0.0683032075472
 C1 0.592366 0.973313 0.46095  -0.0683032075472
 C1 0.973177 0.461001 0.97313  -0.0683032075472
 C1 0.460913 0.973354 0.59230  -0.0683032075472
 C1 0.973582 0.592303 0.97353  -0.0683032075472
 C2 0.110931 0.388975 0.11098  0.712336792453
 C3 0.053625 0.446332 0.05364  -0.103763207547
 C2 0.3891 0.111128 0.38906  0.712336792453
 C3 0.446401 0.053673 0.44637  -0.103763207547
 C2 0.110943 0.110977 0.38896  0.712336792453
 C3 0.053594 0.053676 0.44632  -0.103763207547
 C2 0.389098 0.389071 0.1111  0.712336792453
 C3 0.446399 0.44638 0.05367  -0.103763207547
 C2 0.11109 0.389071 0.38906  0.712336792453
 C3 0.053701 0.446384 0.44637  -0.103763207547
 C2 0.388971 0.110992 0.11096  0.712336792453
 C3 0.446339 0.053614 0.0536  -0.103763207547
 C2 0.611042 0.889 0.88901  0.712336792453
 C3 0.553673 0.946379 0.94630  -0.103763207547
 C2 0.888922 0.610921 0.61091  0.712336792453
 C3 0.946311 0.553608 0.55360  -0.103763207547
 C2 0.889068 0.889017 0.61101  0.712336792453
 C3 0.946415 0.94632 0.55365  -0.103763207547
 C2 0.610915 0.610923 0.88886  0.712336792453
 C3 0.553613 0.553614 0.9463  -0.103763207547
 C2 0.610913 0.888867 0.61091  0.712336792453
 C3 0.553612 0.946321 0.55360  -0.103763207547
 C2 0.889082 0.611019 0.88899  0.712336792453
 C3 0.946388 0.553662 0.94633  -0.103763207547
 O1 0.250001 0.249997 0.24999  -1.27568320755
 O1 0.750012 0.749996 0.74998  -1.27568320755
 O2 0.133202 0.428595 0.13318  -0.621255707547
 O2 0.428702 0.133326 0.30531  -0.621255707547
 O2 0.132842 0.305196 0.13299  -0.621255707547
 O2 0.305305 0.133244 0.42864  -0.621255707547
 O2 0.132828 0.133019 0.30518  -0.621255707547
 O2 0.4287 0.305319 0.13331  -0.621255707547
 O2 0.133204 0.133184 0.4285  -0.621255707547
 O2 0.305304 0.428642 0.13324  -0.621255707547
 O2 0.133261 0.305323 0.42863  -0.621255707547
 O2 0.428626 0.133195 0.133  -0.621255707547
 O2 0.133264 0.428637 0.30531  -0.621255707547
 O2 0.305147 0.132956 0.13296  -0.621255707547
 O2 0.571386 0.866797 0.86677  -0.621255707547
 O2 0.866749 0.571355 0.69466  -0.621255707547
 O2 0.694865 0.867034 0.86701  -0.621255707547
 O2 0.866748 0.69467 0.57134  -0.621255707547
 O2 0.86718 0.866978 0.69479  -0.621255707547
 O2 0.694709 0.571351 0.86674  -0.621255707547
 O2 0.866814 0.866804 0.57139  -0.621255707547
 O2 0.571313 0.694674 0.86666  -0.621255707547
 O2 0.694708 0.866753 0.57133  -0.621255707547
 O2 0.866811 0.571399 0.86679  -0.621255707547
 O2 0.571311 0.866667 0.69466  -0.621255707547
 O2 0.867172 0.694798 0.86698  -0.621255707547
