#======================================================================

# CRYSTAL DATA

#----------------------------------------------------------------------

data_VESTA_phase_1


_pd_phase_name                         MOF
_cell_length_a                         18.42000
_cell_length_b                         18.43000
_cell_length_c                         18.42600
_cell_angle_alpha                      60.17700
_cell_angle_beta                       60.21300
_cell_angle_gamma                      60.20200
_symmetry_space_group_name_H-M         "P 1"
_symmetry_Int_Tables_number            1

loop_
_symmetry_equiv_pos_as_xyz
   "x, y, z"

loop_
   _atom_site_label
   _atom_site_fract_x
   _atom_site_fract_y
   _atom_site_fract_z
 _atom_site_charge
 Zn1 0.880361 0.706655 0.20658  1.09343358491
 Zn1 0.293297 0.11972 0.79316  1.09343358491
 Zn1 0.119623 0.293333 0.79341  1.09343358491
 Zn1 0.706686 0.88027 0.20683  1.09343358491
 Zn1 0.706586 0.70682 0.38029  1.09343358491
 Zn1 0.706332 0.706091 0.20615  1.09343358491
 Zn1 0.293399 0.293168 0.61970  1.09343358491
 Zn1 0.293652 0.293898 0.79385  1.09343358491
 H1 0.549779 0.068128 0.33572  0.108844418239
 H1 0.546809 0.835721 0.56816  0.108844418239
 H1 0.547987 0.067535 0.0494  0.108844418239
 H1 0.548127 0.835763 0.04680  0.108844418239
 H1 0.06817 0.835727 0.0482  0.108844418239
 H1 0.931885 0.450238 0.6642  0.108844418239
 H1 0.164302 0.45299 0.43195  0.108844418239
 H1 0.932179 0.452066 0.95072  0.108844418239
 H1 0.16429 0.451843 0.95308  0.108844418239
 H1 0.164308 0.931969 0.95160  0.108844418239
 H1 0.450206 0.931862 0.66427  0.108844418239
 H1 0.453176 0.164269 0.43183  0.108844418239
 H1 0.451998 0.932455 0.95052  0.108844418239
 H1 0.451857 0.164227 0.95319  0.108844418239
 H1 0.931815 0.164263 0.95177  0.108844418239
 H1 0.0681 0.549753 0.33573  0.108844418239
 H1 0.835683 0.547001 0.56804  0.108844418239
 H1 0.067806 0.547922 0.04927  0.108844418239
 H1 0.835695 0.548145 0.04691  0.108844418239
 H1 0.835676 0.068021 0.04839  0.108844418239
 H1 0.547443 0.547447 0.33574  0.108844418239
 H1 0.548652 0.548805 0.56754  0.108844418239
 H1 0.452542 0.452542 0.66425  0.108844418239
 H1 0.451333 0.451184 0.43245  0.108844418239
 C1 0.611303 0.889067 0.38912  0.694640251572
 C2 0.553859 0.946375 0.44640  -0.116316415094
 C3 0.527579 0.039039 0.4076  -0.057471831761
 C3 0.525904 0.907686 0.53906  -0.057471831761
 C1 0.610909 0.888575 0.1110  0.694640251572
 C2 0.553596 0.946088 0.05367  -0.116316415094
 C3 0.526578 0.03872 0.02741  -0.057471831761
 C3 0.52666 0.907708 0.02591  -0.057471831761
 C3 0.039074 0.90769 0.02670  -0.057471831761
 C1 0.110959 0.388555 0.6109  0.694640251572
 C2 0.053632 0.44609 0.55365  -0.116316415094
 C3 0.960947 0.472424 0.59230  -0.057471831761
 C3 0.092325 0.473962 0.46  -0.057471831761
 C1 0.111209 0.389165 0.88904  0.694640251572
 C2 0.053793 0.44642 0.94637  -0.116316415094
 C3 0.961118 0.473455 0.97268  -0.057471831761
 C3 0.092322 0.473334 0.97400  -0.057471831761
 C3 0.092329 0.961 0.973  -0.057471831761
 C1 0.388681 0.110923 0.61087  0.694640251572
 C2 0.446126 0.053615 0.55359  -0.116316415094
 C3 0.472406 0.960951 0.59231  -0.057471831761
 C3 0.47408 0.092304 0.46093  -0.057471831761
 C1 0.389067 0.111415 0.8889  0.694640251572
 C2 0.446403 0.053902 0.94631  -0.116316415094
 C3 0.473405 0.961269 0.97258  -0.057471831761
 C3 0.473323 0.092281 0.97408  -0.057471831761
 C3 0.96091 0.0923 0.97330  -0.057471831761
 C1 0.889026 0.611425 0.38901  0.694640251572
 C2 0.946353 0.553915 0.4463  -0.116316415094
 C3 0.039038 0.527565 0.40769  -0.057471831761
 C3 0.90766 0.526027 0.53900  -0.057471831761
 C1 0.888776 0.610818 0.11095  0.694640251572
 C2 0.946192 0.553579 0.05361  -0.116316415094
 C3 0.038866 0.526532 0.02732  -0.057471831761
 C3 0.907663 0.526654 0.02599  -0.057471831761
 C3 0.907656 0.038989 0.02680  -0.057471831761
 C1 0.610901 0.610987 0.38858  0.694640251572
 C2 0.553588 0.553655 0.44608  -0.116316415094
 C3 0.526274 0.526278 0.40770  -0.057471831761
 C3 0.526945 0.527041 0.53872  -0.057471831761
 C1 0.889092 0.888992 0.11128  0.694640251572
 C2 0.946386 0.946334 0.05384  -0.116316415094
 C1 0.389084 0.389001 0.61141  0.694640251572
 C2 0.446395 0.446337 0.55391  -0.116316415094
 C3 0.473711 0.473711 0.59230  -0.057471831761
 C3 0.47304 0.472948 0.46127  -0.057471831761
 C1 0.110892 0.110997 0.88873  0.694640251572
 C2 0.053599 0.053655 0.94614  -0.116316415094
 O1 0.633135 0.805304 0.42870  -0.600533081761
 O1 0.633798 0.928626 0.30535  -0.600533081761
 O1 0.633104 0.804835 0.1325  -0.600533081761
 O1 0.632905 0.928037 0.13371  -0.600533081761
 O1 0.928679 0.805243 0.13315  -0.600533081761
 O1 0.194728 0.366404 0.57144  -0.600533081761
 O1 0.071382 0.366417 0.69474  -0.600533081761
 O1 0.194983 0.367269 0.86717  -0.600533081761
 O1 0.071675 0.366894 0.86671  -0.600533081761
 O1 0.194663 0.071463 0.86635  -0.600533081761
 O1 0.366851 0.194685 0.571  -0.600533081761
 O1 0.366185 0.071365 0.69464  -0.600533081761
 O1 0.366876 0.195155 0.86743  -0.600533081761
 O1 0.367076 0.071952 0.86629  -0.600533081761
 O1 0.071305 0.194746 0.86685  -0.600533081761
 O1 0.805256 0.63358 0.42855  -0.600533081761
 O1 0.928603 0.633566 0.30525  -0.600533081761
 O1 0.805002 0.632718 0.13282  -0.600533081761
 O1 0.92831 0.633092 0.13329  -0.600533081761
 O1 0.805322 0.928526 0.13365  -0.600533081761
 O2 0.749923 0.749864 0.24987  -1.25375141509
 O1 0.633004 0.633535 0.42806  -0.600533081761
 O1 0.632975 0.632648 0.30482  -0.600533081761
 O2 0.250062 0.250126 0.75012  -1.25375141509
 O1 0.366981 0.366454 0.57193  -0.600533081761
 O1 0.36701 0.36734 0.69517  -0.600533081761
