#======================================================================

# CRYSTAL DATA

#----------------------------------------------------------------------

data_VESTA_phase_1


_pd_phase_name                         MOF
_cell_length_a                         13.12800
_cell_length_b                         13.96900
_cell_length_c                         16.99000
_cell_angle_alpha                      90.00000
_cell_angle_beta                       90.04600
_cell_angle_gamma                      90.11900
_symmetry_space_group_name_H-M         "P 1"
_symmetry_Int_Tables_number            1

loop_
_symmetry_equiv_pos_as_xyz
   "x, y, z"

loop_
   _atom_site_label
   _atom_site_fract_x
   _atom_site_fract_y
   _atom_site_fract_z
 _atom_site_charge
 Zn1 0.426509 0.979636 0.40638  0.820442884615
 Zn2 0.476182 0.908357 0.07314  0.818232884615
 Zn1 0.573372 0.520319 0.90639  0.820442884615
 Zn2 0.523781 0.59164 0.57314  0.818232884615
 Zn1 0.927567 0.018613 0.09660  0.820442884615
 Zn1 0.977801 0.092263 0.42943  0.820442884615
 Zn1 0.072499 0.481779 0.59663  0.820442884615
 Zn1 0.0221 0.407815 0.92939  0.820442884615
 Zn1 0.573159 0.020398 0.59365  0.820442884615
 Zn2 0.524036 0.091525 0.9269  0.818232884615
 Zn1 0.426799 0.479663 0.09366  0.820442884615
 Zn2 0.475832 0.408464 0.42701  0.818232884615
 Zn1 0.072134 0.98035 0.9066  0.820442884615
 Zn1 0.022261 0.908492 0.5732  0.820442884615
 Zn1 0.927343 0.519741 0.40685  0.820442884615
 Zn1 0.977524 0.591616 0.07325  0.820442884615
 H1 0.259954 0.859745 0.50787  0.0803803846154
 H1 0.441029 0.198901 0.34828  0.0803803846154
 H2 0.152119 0.150374 0.3355  0.359745384615
 H2 0.274767 0.110701 0.31803  0.359745384615
 H2 0.559709 0.229875 0.6386  0.359745384615
 H2 0.564971 0.338832 0.59106  0.359745384615
 H1 0.739951 0.640271 0.00776  0.0803803846154
 H1 0.558693 0.301161 0.84831  0.0803803846154
 H2 0.847764 0.34976 0.83543  0.359745384615
 H2 0.725003 0.389264 0.81793  0.359745384615
 H2 0.440239 0.270147 0.13862  0.359745384615
 H2 0.434941 0.161204 0.09  0.359745384615
 H1 0.76134 0.139114 0.99414  0.0803803846154
 H1 0.944555 0.799919 0.15265  0.0803803846154
 H2 0.651627 0.848824 0.16633  0.359745384615
 H2 0.775062 0.887332 0.18277  0.359745384615
 H2 0.059985 0.771778 0.86147  0.359745384615
 H2 0.066148 0.662397 0.90815  0.359745384615
 H1 0.238437 0.361026 0.49402  0.0803803846154
 H1 0.055001 0.700196 0.65287  0.0803803846154
 H2 0.348508 0.651296 0.66618  0.359745384615
 H2 0.225155 0.61274 0.68263  0.359745384615
 H2 0.940262 0.728313 0.36122  0.359745384615
 H2 0.934791 0.838006 0.40783  0.359745384615
 H1 0.739924 0.140348 0.49302  0.0803803846154
 H1 0.558142 0.801301 0.65196  0.0803803846154
 H2 0.847015 0.849822 0.66558  0.359745384615
 H2 0.724093 0.888989 0.68233  0.359745384615
 H2 0.440333 0.770103 0.36137  0.359745384615
 H2 0.43497 0.661183 0.40906  0.359745384615
 H1 0.259935 0.360044 0.99309  0.0803803846154
 H1 0.441954 0.698699 0.15192  0.0803803846154
 H2 0.152666 0.650396 0.16576  0.359745384615
 H2 0.275621 0.611177 0.18279  0.359745384615
 H2 0.55965 0.729865 0.86142  0.359745384615
 H2 0.565041 0.838794 0.90910  0.359745384615
 H1 0.239374 0.860535 0.00686  0.0803803846154
 H1 0.055077 0.199194 0.84997  0.0803803846154
 H2 0.347634 0.151047 0.83436  0.359745384615
 H2 0.224011 0.112663 0.81842  0.359745384615
 H2 0.939859 0.228039 0.14117  0.359745384615
 H2 0.933504 0.337177 0.09406  0.359745384615
 H1 0.760414 0.639598 0.50696  0.0803803846154
 H1 0.944675 0.300925 0.34997  0.0803803846154
 H2 0.652237 0.349023 0.33439  0.359745384615
 H2 0.775873 0.387417 0.31864  0.359745384615
 H2 0.059992 0.272039 0.64126  0.359745384615
 H2 0.066292 0.162969 0.59403  0.359745384615
 C1 0.421937 0.013256 0.22027  0.517737884615
 C1 0.466641 0.91508 0.24406  0.517737884615
 C2 0.201321 0.046267 0.40829  0.638337884615
 C3 0.224816 0.921385 0.48019  0.267987884615
 C2 0.528969 0.220357 0.52303  0.638337884615
 C3 0.469512 0.190546 0.40763  0.267987884615
 C1 0.577963 0.486736 0.72027  0.517737884615
 C1 0.533305 0.584894 0.74404  0.517737884615
 C2 0.798586 0.453833 0.90814  0.638337884615
 C3 0.775102 0.578677 0.98003  0.267987884615
 C2 0.470847 0.279691 0.02300  0.638337884615
 C3 0.530231 0.30951 0.90764  0.267987884615
 C1 0.923511 0.984926 0.28068  0.517737884615
 C1 0.967025 0.084176 0.25835  0.517737884615
 C2 0.701201 0.952603 0.09329  0.638337884615
 C3 0.725653 0.077601 0.02176  0.267987884615
 C2 0.030477 0.780094 0.97726  0.638337884615
 C3 0.972356 0.808825 0.09317  0.267987884615
 C1 0.076653 0.51509 0.78069  0.517737884615
 C1 0.033029 0.415905 0.75829  0.517737884615
 C2 0.298805 0.547524 0.59313  0.638337884615
 C3 0.274193 0.422541 0.52162  0.267987884615
 C2 0.970169 0.720179 0.47706  0.638337884615
 C3 0.027558 0.691361 0.59325  0.267987884615
 C1 0.577823 0.986746 0.77987  0.517737884615
 C1 0.533191 0.084934 0.75605  0.517737884615
 C2 0.798137 0.953632 0.59256  0.638337884615
 C3 0.774941 0.078697 0.52078  0.267987884615
 C2 0.470753 0.779733 0.47706  0.638337884615
 C3 0.52982 0.809625 0.59256  0.267987884615
 C1 0.42215 0.513223 0.27984  0.517737884615
 C1 0.466791 0.415072 0.25605  0.517737884615
 C2 0.201621 0.54646 0.09287  0.638337884615
 C3 0.224875 0.421598 0.02094  0.267987884615
 C2 0.529239 0.720251 0.9770  0.638337884615
 C3 0.470229 0.690371 0.09254  0.267987884615
 C1 0.075764 0.015702 0.72078  0.517737884615
 C1 0.031717 0.916769 0.74412  0.517737884615
 C2 0.29858 0.047192 0.90751  0.638337884615
 C3 0.274779 0.922087 0.97908  0.267987884615
 C2 0.969373 0.219187 0.02542  0.638337884615
 C3 0.027456 0.190368 0.90950  0.267987884615
 C1 0.923472 0.483662 0.22040  0.517737884615
 C1 0.965511 0.583273 0.24388  0.517737884615
 C2 0.701214 0.452871 0.40765  0.638337884615
 C3 0.725009 0.578001 0.4792  0.267987884615
 C2 0.030478 0.281003 0.5254  0.638337884615
 C3 0.972314 0.309764 0.40953  0.267987884615
 N1 0.273374 0.979607 0.42798  -0.545877115385
 N2 0.129571 0.948383 0.49296  -0.325454615385
 N2 0.113774 0.029585 0.44720  -0.325454615385
 N3 0.217102 0.120989 0.35826  -0.765927115385
 N2 0.523223 0.123935 0.51624  -0.325454615385
 N2 0.484277 0.105956 0.44120  -0.325454615385
 N1 0.495602 0.264179 0.45574  -0.545877115385
 N3 0.568987 0.265826 0.58662  -0.765927115385
 N1 0.726489 0.520371 0.92787  -0.545877115385
 N2 0.870427 0.55182 0.99274  -0.325454615385
 N2 0.886217 0.470656 0.94699  -0.325454615385
 N3 0.782793 0.379069 0.85814  -0.765927115385
 N2 0.476525 0.376122 0.01621  -0.325454615385
 N2 0.515446 0.394102 0.94119  -0.325454615385
 N1 0.504176 0.23587 0.95571  -0.545877115385
 N3 0.430906 0.23421 0.08656  -0.765927115385
 N1 0.773927 0.018885 0.07367  -0.545877115385
 N2 0.629949 0.051346 0.0091  -0.325454615385
 N2 0.61349 0.969955 0.05471  -0.325454615385
 N3 0.71671 0.87746 0.14298  -0.765927115385
 N2 0.023935 0.876408 0.98434  -0.325454615385
 N2 0.985936 0.893664 0.05972  -0.325454615385
 N1 0.998444 0.73566 0.04471  -0.545877115385
 N3 0.069976 0.735434 0.91324  -0.765927115385
 N1 0.226027 0.481289 0.57351  -0.545877115385
 N2 0.369889 0.448762 0.50900  -0.325454615385
 N2 0.386443 0.530134 0.55458  -0.325454615385
 N3 0.283371 0.622682 0.64281  -0.765927115385
 N2 0.976454 0.623819 0.48419  -0.325454615385
 N2 0.01397 0.606545 0.55976  -0.325454615385
 N1 0.001949 0.764551 0.54466  -0.545877115385
 N3 0.931219 0.76497 0.41294  -0.765927115385
 N1 0.726124 0.020239 0.57261  -0.545877115385
 N2 0.870339 0.051871 0.50849  -0.325454615385
 N2 0.885974 0.97058 0.55414  -0.325454615385
 N3 0.782079 0.87874 0.64236  -0.765927115385
 N2 0.476495 0.876157 0.48380  -0.325454615385
 N2 0.515168 0.894191 0.55891  -0.325454615385
 N1 0.503889 0.735967 0.54444  -0.545877115385
 N3 0.430956 0.734191 0.41342  -0.765927115385
 N1 0.273707 0.480019 0.0728  -0.545877115385
 N2 0.129414 0.448304 0.00868  -0.325454615385
 N2 0.113742 0.529454 0.05444  -0.325454615385
 N3 0.217563 0.621294 0.14278  -0.765927115385
 N2 0.523489 0.623822 0.98381  -0.325454615385
 N2 0.484846 0.605801 0.05891  -0.325454615385
 N1 0.496151 0.764028 0.04445  -0.545877115385
 N3 0.569004 0.765783 0.9134  -0.765927115385
 N1 0.226032 0.980842 0.92748  -0.545877115385
 N2 0.370541 0.948378 0.99121  -0.325454615385
 N2 0.386629 0.029818 0.94564  -0.325454615385
 N3 0.282721 0.122345 0.85793  -0.765927115385
 N2 0.976199 0.122858 0.01854  -0.325454615385
 N2 0.014149 0.105561 0.94311  -0.325454615385
 N1 0.001233 0.263577 0.95787  -0.545877115385
 N3 0.929751 0.264093 0.0892  -0.765927115385
 N1 0.773718 0.519236 0.42767  -0.545877115385
 N2 0.62928 0.551656 0.49128  -0.325454615385
 N2 0.6132 0.470214 0.44572  -0.325454615385
 N3 0.717118 0.377774 0.35806  -0.765927115385
 N2 0.023646 0.377332 0.51859  -0.325454615385
 N2 0.98563 0.394593 0.4431  -0.325454615385
 N1 0.998583 0.236581 0.45793  -0.545877115385
 N3 0.070147 0.236041 0.58935  -0.765927115385
 O1 0.394747 0.066966 0.27613  -0.553817115385
 O2 0.475376 0.895311 0.3166  -0.535767115385
 O2 0.417771 0.029593 0.14687  -0.535767115385
 O2 0.493292 0.858345 0.18975  -0.535767115385
 O1 0.605054 0.432967 0.77615  -0.553817115385
 O2 0.524557 0.604642 0.8166  -0.535767115385
 O2 0.582179 0.470435 0.64687  -0.535767115385
 O2 0.506681 0.641652 0.68971  -0.535767115385
 O1 0.896486 0.932467 0.22368  -0.553817115385
 O2 0.977186 0.104593 0.18601  -0.535767115385
 O1 0.920019 0.966608 0.35362  -0.553817115385
 O2 0.991487 0.14111 0.31334  -0.535767115385
 O1 0.103886 0.567496 0.72373  -0.553817115385
 O2 0.022894 0.395507 0.68594  -0.535767115385
 O1 0.080016 0.533432 0.85363  -0.553817115385
 O2 0.0 0.358993 0.81325  -0.535767115385
 O1 0.6048 0.93291 0.72406  -0.553817115385
 O2 0.524535 0.104694 0.68342  -0.535767115385
 O2 0.582167 0.970485 0.85329  -0.535767115385
 O2 0.506554 0.141662 0.81035  -0.535767115385
 O1 0.395174 0.567083 0.22401  -0.553817115385
 O2 0.47546 0.395332 0.18343  -0.535767115385
 O2 0.417763 0.529456 0.35326  -0.535767115385
 O2 0.493402 0.358325 0.31037  -0.535767115385
 O1 0.102706 0.069305 0.77692  -0.553817115385
 O2 0.023009 0.896176 0.8165  -0.535767115385
 O1 0.079651 0.032664 0.647  -0.553817115385
 O2 0.0 0.860026 0.68955  -0.535767115385
 O1 0.897265 0.429609 0.27641  -0.553817115385
 O2 0.973269 0.604079 0.31637  -0.535767115385
 O1 0.920326 0.466807 0.14707  -0.553817115385
 O2 0.991227 0.640477 0.18950  -0.535767115385
