#======================================================================

# CRYSTAL DATA

#----------------------------------------------------------------------

data_VESTA_phase_1


_pd_phase_name                         MOF
_cell_length_a                         13.17200
_cell_length_b                         13.94800
_cell_length_c                         16.99100
_cell_angle_alpha                      90.05000
_cell_angle_beta                       90.01600
_cell_angle_gamma                      90.24600
_symmetry_space_group_name_H-M         "P 1"
_symmetry_Int_Tables_number            1

loop_
_symmetry_equiv_pos_as_xyz
   "x, y, z"

loop_
   _atom_site_label
   _atom_site_fract_x
   _atom_site_fract_y
   _atom_site_fract_z
 _atom_site_charge
 Zn1 0.426117 0.979607 0.40648  0.823487692308
 Zn2 0.476187 0.908418 0.07322  0.820887692308
 Zn1 0.574065 0.520086 0.90666  0.823487692308
 Zn1 0.523982 0.591586 0.57310  0.823487692308
 Zn1 0.925178 0.020094 0.09364  0.823487692308
 Zn2 0.977794 0.091477 0.42671  0.820887692308
 Zn1 0.075037 0.480145 0.59354  0.823487692308
 Zn1 0.022359 0.40845 0.92681  0.823487692308
 Zn1 0.57391 0.020372 0.59351  0.823487692308
 Zn2 0.52384 0.09156 0.92677  0.820887692308
 Zn1 0.425961 0.479892 0.09333  0.823487692308
 Zn1 0.476042 0.408393 0.42689  0.823487692308
 Zn1 0.074847 0.979886 0.90635  0.823487692308
 Zn2 0.022233 0.908502 0.57328  0.820887692308
 Zn1 0.924986 0.519836 0.40645  0.823487692308
 Zn1 0.977668 0.591529 0.07318  0.823487692308
 H1 0.259038 0.860262 0.50800  0.0763776923077
 H1 0.441598 0.198827 0.34841  0.0763776923077
 H2 0.152939 0.149902 0.33424  0.358702692308
 H2 0.275515 0.110923 0.31793  0.358702692308
 H2 0.56191 0.229269 0.63815  0.358702692308
 H2 0.567165 0.338547 0.59124  0.358702692308
 H1 0.740679 0.638904 0.00873  0.0763776923077
 H1 0.558311 0.301094 0.84854  0.0763776923077
 H2 0.847641 0.349909 0.83404  0.358702692308
 H2 0.724764 0.388502 0.81779  0.358702692308
 H2 0.438349 0.270271 0.13858  0.358702692308
 H2 0.434341 0.160862 0.09110  0.358702692308
 H1 0.759838 0.140181 0.99312  0.0763776923077
 H1 0.941149 0.800874 0.15159  0.0763776923077
 H2 0.651008 0.849365 0.16554  0.358702692308
 H2 0.773832 0.888481 0.18224  0.358702692308
 H2 0.06118 0.771299 0.86201  0.358702692308
 H2 0.066923 0.662264 0.90899  0.358702692308
 H1 0.239733 0.360645 0.49213  0.0763776923077
 H1 0.058389 0.69908 0.65177  0.0763776923077
 H2 0.349749 0.650634 0.6656  0.358702692308
 H2 0.226728 0.611796 0.68236  0.358702692308
 H2 0.939005 0.729135 0.36175  0.358702692308
 H2 0.934218 0.838238 0.40931  0.358702692308
 H1 0.740989 0.139719 0.49200  0.0763776923077
 H1 0.558419 0.801152 0.65158  0.0763776923077
 H2 0.847089 0.850079 0.66575  0.358702692308
 H2 0.724513 0.889057 0.68206  0.358702692308
 H2 0.438105 0.77071 0.36185  0.358702692308
 H2 0.432848 0.661433 0.40876  0.358702692308
 H1 0.259346 0.361073 0.99126  0.0763776923077
 H1 0.441713 0.698884 0.15145  0.0763776923077
 H2 0.152383 0.650066 0.16596  0.358702692308
 H2 0.275261 0.611473 0.18221  0.358702692308
 H2 0.56167 0.729709 0.86141  0.358702692308
 H2 0.565678 0.839118 0.90889  0.358702692308
 H1 0.240183 0.859805 0.00688  0.0763776923077
 H1 0.058871 0.199107 0.84840  0.0763776923077
 H2 0.349015 0.150621 0.83446  0.358702692308
 H2 0.226191 0.111507 0.81776  0.358702692308
 H2 0.938838 0.22868 0.13798  0.358702692308
 H2 0.933095 0.337715 0.09100  0.358702692308
 H1 0.760284 0.639343 0.50785  0.0763776923077
 H1 0.941625 0.3009 0.34822  0.0763776923077
 H2 0.65027 0.349346 0.33434  0.358702692308
 H2 0.773291 0.388184 0.31763  0.358702692308
 H2 0.061 0.270846 0.63824  0.358702692308
 H2 0.065789 0.161742 0.59068  0.358702692308
 C1 0.466623 0.915061 0.24410  0.521892692308
 C1 0.422014 0.013238 0.22031  0.521892692308
 C2 0.201432 0.04652 0.4077  0.636192692308
 C3 0.224211 0.921755 0.47998  0.276637692308
 C2 0.530773 0.220168 0.52270  0.636192692308
 C3 0.470506 0.1904 0.40759  0.276637692308
 C1 0.536665 0.583571 0.74360  0.521892692308
 C1 0.578562 0.484081 0.72000  0.521892692308
 C2 0.798895 0.453272 0.90772  0.636192692308
 C3 0.775692 0.577637 0.98045  0.276637692308
 C2 0.470233 0.279574 0.02309  0.636192692308
 C3 0.529795 0.309454 0.90784  0.276637692308
 C1 0.968192 0.08478 0.25568  0.521892692308
 C1 0.922481 0.986662 0.27948  0.521892692308
 C2 0.700356 0.953373 0.09262  0.636192692308
 C3 0.724403 0.078556 0.02089  0.276637692308
 C2 0.030717 0.780311 0.9774  0.636192692308
 C3 0.970152 0.809533 0.09245  0.276637692308
 C1 0.034852 0.416011 0.75614  0.521892692308
 C1 0.0782 0.51523 0.77972  0.521892692308
 C2 0.300031 0.546689 0.59255  0.636192692308
 C3 0.275422 0.421985 0.52023  0.276637692308
 C2 0.969998 0.719869 0.47729  0.636192692308
 C3 0.029806 0.690511 0.59247  0.276637692308
 C1 0.533413 0.08492 0.75589  0.521892692308
 C1 0.578005 0.986737 0.77968  0.521892692308
 C2 0.798595 0.953461 0.59222  0.636192692308
 C3 0.775816 0.078226 0.52002  0.276637692308
 C2 0.469243 0.779812 0.47729  0.636192692308
 C3 0.529512 0.809579 0.5924  0.276637692308
 C1 0.463365 0.416408 0.256  0.521892692308
 C1 0.421463 0.515896 0.27999  0.521892692308
 C2 0.20113 0.546705 0.09227  0.636192692308
 C3 0.224333 0.422341 0.0195  0.276637692308
 C2 0.529788 0.720405 0.97690  0.636192692308
 C3 0.470228 0.690525 0.0921  0.276637692308
 C1 0.031845 0.915196 0.74431  0.521892692308
 C1 0.077541 0.013321 0.72051  0.521892692308
 C2 0.299668 0.046612 0.90738  0.636192692308
 C3 0.27562 0.921429 0.97911  0.276637692308
 C2 0.969302 0.219669 0.02251  0.636192692308
 C3 0.029868 0.190447 0.90754  0.276637692308
 C1 0.965178 0.583969 0.24385  0.521892692308
 C1 0.921824 0.484752 0.22027  0.521892692308
 C2 0.699989 0.453292 0.40744  0.636192692308
 C3 0.724597 0.578 0.4797  0.276637692308
 C2 0.030011 0.280111 0.5227  0.636192692308
 C3 0.970208 0.309469 0.40752  0.276637692308
 N1 0.273177 0.980088 0.42802  -0.546502307692
 N2 0.129059 0.948429 0.49208  -0.327057307692
 N2 0.113717 0.029636 0.44613  -0.327057307692
 N3 0.217589 0.121301 0.35776  -0.763597307692
 N2 0.524471 0.123632 0.51590  -0.327057307692
 N2 0.485017 0.105683 0.4410  -0.327057307692
 N1 0.497317 0.264111 0.45556  -0.546502307692
 N3 0.571293 0.265439 0.58621  -0.763597307692
 N1 0.726919 0.519341 0.92827  -0.546502307692
 N2 0.870941 0.551214 0.99243  -0.327057307692
 N2 0.886572 0.47032 0.94611  -0.327057307692
 N3 0.783023 0.37862 0.85744  -0.763597307692
 N2 0.476099 0.376166 0.01637  -0.327057307692
 N2 0.515113 0.39417 0.94139  -0.327057307692
 N1 0.503572 0.235738 0.9558  -0.546502307692
 N3 0.430288 0.23395 0.08653  -0.763597307692
 N1 0.772731 0.01988 0.07263  -0.546502307692
 N2 0.62901 0.05202 0.00870  -0.327057307692
 N2 0.612794 0.970608 0.05436  -0.327057307692
 N3 0.715902 0.878258 0.1422  -0.763597307692
 N2 0.024156 0.876762 0.98420  -0.327057307692
 N2 0.984391 0.89438 0.05891  -0.327057307692
 N1 0.997404 0.736055 0.04460  -0.546502307692
 N3 0.07139 0.735391 0.91396  -0.763597307692
 N1 0.227365 0.480619 0.57219  -0.546502307692
 N2 0.37093 0.448209 0.50823  -0.327057307692
 N2 0.387519 0.529268 0.55430  -0.327057307692
 N3 0.284838 0.621651 0.64252  -0.763597307692
 N2 0.976271 0.623363 0.48388  -0.327057307692
 N2 0.015539 0.605672 0.55878  -0.327057307692
 N1 0.003094 0.764015 0.54459  -0.546502307692
 N3 0.929813 0.765123 0.41382  -0.763597307692
 N1 0.72685 0.019893 0.57197  -0.546502307692
 N2 0.870968 0.051552 0.50791  -0.327057307692
 N2 0.88631 0.970346 0.55386  -0.327057307692
 N3 0.782438 0.87868 0.64224  -0.763597307692
 N2 0.475551 0.876347 0.48409  -0.327057307692
 N2 0.515005 0.894297 0.55893  -0.327057307692
 N1 0.502697 0.735869 0.54444  -0.546502307692
 N3 0.42872 0.734541 0.4137  -0.763597307692
 N1 0.273106 0.480635 0.07172  -0.546502307692
 N2 0.129085 0.448765 0.00756  -0.327057307692
 N2 0.113454 0.529658 0.05388  -0.327057307692
 N3 0.217002 0.621355 0.14256  -0.763597307692
 N2 0.523924 0.623813 0.98362  -0.327057307692
 N2 0.48491 0.605809 0.05860  -0.327057307692
 N1 0.496449 0.764241 0.04416  -0.546502307692
 N3 0.56973 0.76603 0.91346  -0.763597307692
 N1 0.227291 0.980107 0.92737  -0.546502307692
 N2 0.371015 0.947962 0.99129  -0.327057307692
 N2 0.387231 0.029373 0.94564  -0.327057307692
 N3 0.28412 0.12173 0.8577  -0.763597307692
 N2 0.975864 0.123217 0.01579  -0.327057307692
 N2 0.015629 0.1056 0.94108  -0.327057307692
 N1 0.002616 0.263925 0.95539  -0.546502307692
 N3 0.928628 0.264588 0.08603  -0.763597307692
 N1 0.772654 0.519366 0.42779  -0.546502307692
 N2 0.62909 0.551774 0.4917  -0.327057307692
 N2 0.612502 0.470711 0.44569  -0.327057307692
 N3 0.715182 0.378329 0.35747  -0.763597307692
 N2 0.023741 0.376618 0.5161  -0.327057307692
 N2 0.984475 0.394308 0.44121  -0.327057307692
 N1 0.996918 0.235965 0.45540  -0.546502307692
 N3 0.070191 0.234857 0.58617  -0.763597307692
 O1 0.47524 0.895331 0.31670  -0.537942307692
 O2 0.394864 0.067039 0.27612  -0.559132307692
 O1 0.493418 0.858361 0.18976  -0.537942307692
 O1 0.417824 0.029508 0.14689  -0.537942307692
 O1 0.529016 0.604314 0.8161  -0.537942307692
 O2 0.604886 0.430118 0.7759  -0.559132307692
 O1 0.510962 0.640727 0.68928  -0.537942307692
 O2 0.581691 0.46721 0.64668  -0.559132307692
 O1 0.976881 0.104506 0.18307  -0.537942307692
 O2 0.893482 0.933289 0.22375  -0.559132307692
 O1 0.995624 0.141445 0.31005  -0.537942307692
 O1 0.919494 0.969972 0.3528  -0.537942307692
 O1 0.026921 0.395506 0.68360  -0.537942307692
 O2 0.106779 0.56828 0.72371  -0.559132307692
 O1 0.00845 0.358983 0.81049  -0.537942307692
 O2 0.080025 0.5329 0.85294  -0.559132307692
 O1 0.524779 0.104643 0.68329  -0.537942307692
 O2 0.605173 0.932942 0.72387  -0.559132307692
 O1 0.506601 0.141613 0.8102  -0.537942307692
 O1 0.582212 0.970475 0.8531  -0.537942307692
 O1 0.47101 0.395663 0.18389  -0.537942307692
 O2 0.395145 0.569861 0.2240  -0.559132307692
 O1 0.489062 0.35925 0.31071  -0.537942307692
 O2 0.418338 0.532769 0.35331  -0.559132307692
 O1 0.023139 0.895476 0.81692  -0.537942307692
 O2 0.106554 0.066686 0.7762  -0.559132307692
 O1 0.004397 0.858538 0.68994  -0.537942307692
 O1 0.080543 0.030007 0.64713  -0.537942307692
 O1 0.973105 0.604476 0.316  -0.537942307692
 O2 0.893248 0.431703 0.27628  -0.559132307692
 O1 0.991576 0.640998 0.18950  -0.537942307692
 O2 0.920005 0.467078 0.14705  -0.559132307692
