#======================================================================

# CRYSTAL DATA

#----------------------------------------------------------------------

data_VESTA_phase_1


_pd_phase_name                         MOF
_cell_length_a                         15.47000
_cell_length_b                         17.45600
_cell_length_c                         17.45500
_cell_angle_alpha                      79.15600
_cell_angle_beta                       64.30100
_cell_angle_gamma                      64.30200
_symmetry_space_group_name_H-M         "P 1"
_symmetry_Int_Tables_number            1

loop_
_symmetry_equiv_pos_as_xyz
   "x, y, z"

loop_
   _atom_site_label
   _atom_site_fract_x
   _atom_site_fract_y
   _atom_site_fract_z
 _atom_site_charge
 Zn1 0.750005 0.999972 2.9e-0  0.781543161765
 Zn1 0.250003 3.1e-05 0.99996  0.781543161765
 Si1 0.999999 0.0 0.  1.82230316176
 Si1 0.500004 0.0 0.  1.82230316176
 H1 0.9681 0.857397 0.95750  0.112048370098
 H1 0.052294 0.699974 0.9569  0.112048370098
 H1 0.093109 0.579708 0.88664  0.112048370098
 H1 0.785626 0.144937 0.04238  0.112048370098
 H1 0.712004 0.302701 0.04290  0.112048370098
 H1 0.562619 0.422946 0.11294  0.112048370098
 H1 0.925789 0.043406 0.85743  0.112048370098
 H1 0.0 0.043926 0.69998  0.112048370098
 H1 0.981943 0.113501 0.57966  0.112048370098
 H1 0.826951 0.958468 0.14493  0.112048370098
 H1 0.753818 0.957997 0.30269  0.112048370098
 H1 0.673239 0.887198 0.42292  0.112048370098
 H1 0.714471 0.957573 0.85508  0.112048370098
 H1 0.788117 0.957045 0.69730  0.112048370098
 H1 0.937465 0.887035 0.57708  0.112048370098
 H1 0.531881 0.042521 0.14256  0.112048370098
 H1 0.447663 0.043031 0.  0.112048370098
 H1 0.406888 0.11338 0.42030  0.112048370098
 H1 0.673035 0.855056 0.04151  0.112048370098
 H1 0.746156 0.697303 0.04197  0.112048370098
 H1 0.826734 0.57704 0.11276  0.112048370098
 H1 0.574237 0.142595 0.95662  0.112048370098
 H1 0.490527 0.300031 0.95610  0.112048370098
 H1 0.518106 0.420307 0.88650  0.112048370098
 H1 0.031913 0.142595 0.04250  0.112048370098
 H1 0.947719 0.300019 0.04302  0.112048370098
 H1 0.906908 0.420284 0.11337  0.112048370098
 H1 0.214388 0.855052 0.95763  0.112048370098
 H1 0.288005 0.697289 0.95712  0.112048370098
 H1 0.437394 0.577046 0.88707  0.112048370098
 H1 0.074228 0.956586 0.14257  0.112048370098
 H1 0.990505 0.956059 0.30001  0.112048370098
 H1 0.018084 0.886481 0.42033  0.112048370098
 H1 0.173073 0.041522 0.85507  0.112048370098
 H1 0.246207 0.041992 0.69730  0.112048370098
 H1 0.326784 0.112788 0.57707  0.112048370098
 H1 0.285546 0.042419 0.14492  0.112048370098
 H1 0.211907 0.04294 0.30269  0.112048370098
 H1 0.062563 0.112946 0.42291  0.112048370098
 H1 0.468142 0.957471 0.85743  0.112048370098
 H1 0.552361 0.956959 0.70000  0.112048370098
 H1 0.593136 0.886607 0.57969  0.112048370098
 H1 0.32698 0.144934 0.9584  0.112048370098
 H1 0.253859 0.302686 0.95803  0.112048370098
 H1 0.173282 0.422952 0.88725  0.112048370098
 H1 0.42579 0.857397 0.04337  0.112048370098
 H1 0.509495 0.699962 0.04390  0.112048370098
 H1 0.481908 0.579685 0.11351  0.112048370098
 C1 0.921505 0.819647 0.97557  0.176913161765
 C2 0.968105 0.731407 0.97488  -0.173455588235
 C2 0.052683 0.544945 0.93730  -0.173455588235
 C1 0.719852 0.181729 0.02395  0.176913161765
 C2 0.677651 0.270072 0.02458  -0.173455588235
 C2 0.536664 0.456556 0.0624  -0.173455588235
 C1 0.897222 0.024941 0.81966  0.176913161765
 C2 0.94317 0.025608 0.73142  -0.173455588235
 C2 0.991193 0.062783 0.54493  -0.173455588235
 C1 0.743202 0.97653 0.18170  0.176913161765
 C2 0.701617 0.975913 0.27005  -0.173455588235
 C2 0.597867 0.937587 0.45654  -0.173455588235
 C1 0.780235 0.976015 0.8182  0.176913161765
 C2 0.822452 0.975378 0.72994  -0.173455588235
 C2 0.963404 0.93749 0.54346  -0.173455588235
 C1 0.578472 0.024437 0.18032  0.176913161765
 C2 0.531863 0.025127 0.26856  -0.173455588235
 C2 0.447318 0.062714 0.45505  -0.173455588235
 C1 0.756783 0.818284 0.02345  0.176913161765
 C2 0.798362 0.729937 0.02406  -0.173455588235
 C2 0.90213 0.543435 0.0623  -0.173455588235
 C1 0.602821 0.180355 0.97507  0.176913161765
 C2 0.556886 0.268593 0.97440  -0.173455588235
 C2 0.50885 0.455053 0.93722  -0.173455588235
 C1 0.078513 0.18034 0.02443  0.176913161765
 C2 0.031908 0.26858 0.02512  -0.173455588235
 C2 0.947328 0.455046 0.06270  -0.173455588235
 C1 0.280163 0.818262 0.97606  0.176913161765
 C2 0.322361 0.729918 0.97543  -0.173455588235
 C2 0.463349 0.543436 0.93752  -0.173455588235
 C1 0.102796 0.975049 0.18033  0.176913161765
 C2 0.056852 0.974378 0.26858  -0.173455588235
 C2 0.008834 0.937198 0.45507  -0.173455588235
 C1 0.256823 0.023456 0.81829  0.176913161765
 C2 0.298413 0.024075 0.72994  -0.173455588235
 C2 0.402162 0.062405 0.54345  -0.173455588235
 C1 0.219784 0.023975 0.18171  0.176913161765
 C2 0.17757 0.024609 0.27006  -0.173455588235
 C2 0.036623 0.062492 0.45654  -0.173455588235
 C1 0.421548 0.97555 0.81968  0.176913161765
 C2 0.468162 0.974862 0.73143  -0.173455588235
 C2 0.552711 0.937278 0.54494  -0.173455588235
 C1 0.24323 0.18171 0.97655  0.176913161765
 C2 0.201647 0.270058 0.97594  -0.173455588235
 C2 0.09788 0.456557 0.93762  -0.173455588235
 C1 0.397203 0.819636 0.02492  0.176913161765
 C2 0.443134 0.731399 0.02560  -0.173455588235
 C2 0.491163 0.544939 0.06279  -0.173455588235
 C3 0.906573 0.683998 0.99949  0.0772106617647
 C3 0.953939 0.590157 0.99966  0.0772106617647
 C3 0.593896 0.31602 0.99951  0.0772106617647
 C3 0.546377 0.409853 0.99968  0.0772106617647
 C3 0.906183 0.000465 0.68399  0.0772106617647
 C3 0.953679 0.000307 0.59015  0.0772106617647
 C3 0.593393 0.00049 0.31599  0.0772106617647
 C3 0.546043 0.000331 0.40983  0.0772106617647
 C3 0.093435 0.316002 0.000  0.0772106617647
 C3 0.046081 0.409843 0.00035  0.0772106617647
 C3 0.406118 0.68398 0.00048  0.0772106617647
 C3 0.453637 0.590148 0.00032  0.0772106617647
 C3 0.09383 0.999523 0.31600  0.0772106617647
 C3 0.046337 0.999679 0.40984  0.0772106617647
 C3 0.406626 0.999507 0.68401  0.0772106617647
 C3 0.453966 0.999655 0.59016  0.0772106617647
 N1 0.81722 0.862875 0.99962  -0.308451838235
 N1 0.683148 0.137164 0.99961  -0.308451838235
 N1 0.816909 0.000374 0.86286  -0.308451838235
 N1 0.682759 0.000377 0.13710  -0.308451838235
 N1 0.182799 0.137125 0.00036  -0.308451838235
 N1 0.316872 0.862836 0.00038  -0.308451838235
 N1 0.183097 0.999622 0.13714  -0.308451838235
 N1 0.317249 0.999621 0.86289  -0.308451838235
 F1 0.925694 0.076644 0.07636  -0.579111838235
 F1 0.074325 0.923343 0.92364  -0.579111838235
 F1 0.99989 0.923598 0.07665  -0.579111838235
 F1 0.0 0.076388 0.92335  -0.579111838235
 F1 0.425687 0.076363 0.07664  -0.579111838235
 F1 0.574332 0.923623 0.92336  -0.579111838235
 F1 0.499885 0.076647 0.92361  -0.579111838235
 F1 0.500134 0.92334 0.07639  -0.579111838235
 F2 0.886401 0.000184 0.00020  -0.500226838235
 F2 0.613609 0.999799 0.99981  -0.500226838235
 F2 0.113606 0.999816 0.99979  -0.500226838235
 F2 0.386398 0.000202 0.00018  -0.500226838235
