#======================================================================

# CRYSTAL DATA

#----------------------------------------------------------------------

data_VESTA_phase_1


_pd_phase_name                         MOF
_cell_length_a                         18.74600
_cell_length_b                         18.76700
_cell_length_c                         18.76200
_cell_angle_alpha                      60.03900
_cell_angle_beta                       60.06800
_cell_angle_gamma                      60.00000
_symmetry_space_group_name_H-M         "P 1"
_symmetry_Int_Tables_number            1

loop_
_symmetry_equiv_pos_as_xyz
   "x, y, z"

loop_
   _atom_site_label
   _atom_site_fract_x
   _atom_site_fract_y
   _atom_site_fract_z
 _atom_site_charge
 Cu1 0.565473 0.434612 1.1e-0  0.899521730769
 Cu1 0.434429 0.565425 0.99997  0.899521730769
 Cu1 0.000178 0.999994 0.56536  0.899521730769
 Cu1 0.999848 0.999977 0.43466  0.899521730769
 Cu1 0.565493 0.999914 6.3e-0  0.899521730769
 Cu1 0.434472 0.000101 0.99989  0.899521730769
 Cu1 0.99988 0.565384 0.43466  0.899521730769
 Cu1 0.000125 0.434548 0.56537  0.899521730769
 Cu1 0.56553 0.999889 0.43464  0.899521730769
 Cu1 0.434554 9.1e-05 0.56525  0.899521730769
 Cu1 0.999936 0.434628 0.99994  0.899521730769
 Cu1 2.1e-05 0.565348 7.9e-0  0.899521730769
 H1 0.266434 0.49556 0.97171  0.124008814103
 H1 0.495638 0.265933 0.26572  0.124008814103
 H1 0.972599 0.26584 0.26591  0.124008814103
 H1 0.26645 0.971703 0.49540  0.124008814103
 H1 0.266094 0.971956 0.26589  0.124008814103
 H1 0.496081 0.265973 0.97189  0.124008814103
 H1 0.972332 0.266003 0.49552  0.124008814103
 H1 0.266072 0.495623 0.2659  0.124008814103
 H1 0.266273 0.266117 0.49520  0.124008814103
 H1 0.4958 0.972018 0.26593  0.124008814103
 H1 0.972387 0.495354 0.26610  0.124008814103
 H1 0.266266 0.266013 0.97198  0.124008814103
 H1 0.503866 0.734044 0.02811  0.124008814103
 H1 0.733843 0.504337 0.7341  0.124008814103
 H1 0.733858 0.02802 0.73412  0.124008814103
 H1 0.027639 0.733949 0.50450  0.124008814103
 H1 0.027359 0.73412 0.73412  0.124008814103
 H1 0.733482 0.504428 0.02829  0.124008814103
 H1 0.733616 0.028244 0.50457  0.124008814103
 H1 0.504342 0.734094 0.73418  0.124008814103
 H1 0.733774 0.733754 0.5047  0.124008814103
 H1 0.027561 0.504608 0.7339  0.124008814103
 H1 0.504218 0.027915 0.73  0.124008814103
 H1 0.733704 0.733946 0.02803  0.124008814103
 C1 0.300333 0.429112 0.97036  0.0126925641026
 C1 0.429203 0.299884 0.29966  0.0126925641026
 C1 0.971159 0.29978 0.29985  0.0126925641026
 C1 0.300293 0.970374 0.42897  0.0126925641026
 C1 0.300085 0.970518 0.29983  0.0126925641026
 C1 0.429581 0.299918 0.97046  0.0126925641026
 C1 0.971003 0.299873 0.42907  0.0126925641026
 C1 0.300006 0.429148 0.29978  0.0126925641026
 C1 0.300124 0.300005 0.42879  0.0126925641026
 C1 0.429361 0.970554 0.29985  0.0126925641026
 C1 0.971037 0.42893 0.29996  0.0126925641026
 C1 0.300236 0.299955 0.97052  0.0126925641026
 C1 0.570365 0.700086 0.02954  0.0126925641026
 C1 0.699938 0.570807 0.70024  0.0126925641026
 C1 0.699897 0.029441 0.70016  0.0126925641026
 C1 0.028963 0.700083 0.57096  0.0126925641026
 C1 0.028799 0.70018 0.70018  0.0126925641026
 C1 0.699596 0.570875 0.0296  0.0126925641026
 C1 0.69975 0.029568 0.57100  0.0126925641026
 C1 0.570776 0.700107 0.70028  0.0126925641026
 C1 0.699891 0.699904 0.57119  0.0126925641026
 C1 0.028913 0.571031 0.70007  0.0126925641026
 C1 0.570657 0.029384 0.70010  0.0126925641026
 C1 0.699722 0.700016 0.02949  0.0126925641026
 C2 0.386501 0.386022 0.97046  -0.143389935897
 C3 0.43063 0.430162 0.97588  0.670084230769
 C2 0.386082 0.386009 0.25664  -0.143389935897
 C3 0.430193 0.430163 0.16306  0.670084230769
 C2 0.971179 0.25673 0.38595  -0.143389935897
 C3 0.976479 0.163121 0.43012  0.670084230769
 C2 0.257073 0.970497 0.38592  -0.143389935897
 C3 0.163371 0.975887 0.4300  0.670084230769
 C2 0.386179 0.97069 0.25674  -0.143389935897
 C3 0.43023 0.97621 0.16310  0.670084230769
 C2 0.386408 0.256833 0.97062  -0.143389935897
 C3 0.43049 0.163167 0.97613  0.670084230769
 C2 0.971047 0.385936 0.38606  -0.143389935897
 C3 0.976258 0.430149 0.4302  0.670084230769
 C2 0.256955 0.38613 0.38582  -0.143389935897
 C3 0.163305 0.430348 0.43006  0.670084230769
 C2 0.386196 0.256818 0.38570  -0.143389935897
 C3 0.430376 0.163165 0.42987  0.670084230769
 C2 0.386379 0.970545 0.38592  -0.143389935897
 C3 0.430541 0.975978 0.43007  0.670084230769
 C2 0.971233 0.38584 0.25678  -0.143389935897
 C3 0.976564 0.429999 0.16314  0.670084230769
 C2 0.257126 0.386051 0.97054  -0.143389935897
 C3 0.163357 0.430203 0.97602  0.670084230769
 C2 0.61343 0.613984 0.02954  -0.143389935897
 C3 0.569287 0.56986 0.02411  0.670084230769
 C2 0.61386 0.613986 0.7433  -0.143389935897
 C3 0.569721 0.569864 0.83693  0.670084230769
 C2 0.742937 0.029457 0.61408  -0.143389935897
 C3 0.836639 0.024062 0.56993  0.670084230769
 C2 0.028788 0.743226 0.61407  -0.143389935897
 C3 0.02351 0.836828 0.56990  0.670084230769
 C2 0.028713 0.614125 0.74325  -0.143389935897
 C3 0.023377 0.569973 0.83689  0.670084230769
 C2 0.742816 0.613918 0.02948  -0.143389935897
 C3 0.836583 0.569759 0.02401  0.670084230769
 C2 0.613666 0.029397 0.61402  -0.143389935897
 C3 0.569531 0.023966 0.56984  0.670084230769
 C2 0.613822 0.743131 0.61423  -0.143389935897
 C3 0.569683 0.836788 0.57004  0.670084230769
 C2 0.743024 0.613784 0.61420  -0.143389935897
 C3 0.836678 0.56955 0.56998  0.670084230769
 C2 0.028913 0.614021 0.61397  -0.143389935897
 C3 0.023714 0.569806 0.56973  0.670084230769
 C2 0.613802 0.029269 0.74323  -0.143389935897
 C3 0.56973 0.023763 0.83687  0.670084230769
 C2 0.613554 0.743154 0.0293  -0.143389935897
 C3 0.569492 0.836823 0.0238  0.670084230769
 O1 0.508171 0.386154 0.97900  -0.556578269231
 O1 0.386102 0.507647 0.12657  -0.556578269231
 O1 0.979622 0.126634 0.50756  -0.556578269231
 O1 0.126677 0.978998 0.38613  -0.556578269231
 O1 0.507758 0.979219 0.12667  -0.556578269231
 O1 0.386372 0.126734 0.97915  -0.556578269231
 O1 0.979167 0.507647 0.38634  -0.556578269231
 O1 0.126902 0.386345 0.50753  -0.556578269231
 O1 0.50791 0.12657 0.38597  -0.556578269231
 O1 0.386469 0.979131 0.50748  -0.556578269231
 O1 0.979552 0.386049 0.1265  -0.556578269231
 O1 0.126844 0.507642 0.97917  -0.556578269231
 O1 0.613397 0.492383 0.02107  -0.556578269231
 O1 0.492164 0.613868 0.87338  -0.556578269231
 O1 0.873034 0.02099 0.492  -0.556578269231
 O1 0.020621 0.873334 0.61385  -0.556578269231
 O1 0.020347 0.492516 0.87333  -0.556578269231
 O1 0.87318 0.613734 0.02095  -0.556578269231
 O1 0.492012 0.020944 0.61375  -0.556578269231
 O1 0.613752 0.873201 0.49262  -0.556578269231
 O1 0.873301 0.492066 0.61393  -0.556578269231
 O1 0.020601 0.613803 0.49228  -0.556578269231
 O1 0.613841 0.020594 0.87345  -0.556578269231
 O1 0.491967 0.873419 0.02068  -0.556578269231
 O1 0.491752 0.613884 0.02097  -0.556578269231
 O1 0.613808 0.492386 0.87343  -0.556578269231
 O1 0.020406 0.873307 0.49244  -0.556578269231
 O1 0.87332 0.020976 0.61389  -0.556578269231
 O1 0.49221 0.020735 0.87330  -0.556578269231
 O1 0.613627 0.873257 0.02080  -0.556578269231
 O1 0.020864 0.492286 0.61366  -0.556578269231
 O1 0.873075 0.613529 0.4925  -0.556578269231
 O1 0.492148 0.873394 0.61392  -0.556578269231
 O1 0.61361 0.020821 0.49243  -0.556578269231
 O1 0.020396 0.613925 0.87345  -0.556578269231
 O1 0.873096 0.492316 0.02087  -0.556578269231
 O1 0.386507 0.507632 0.97895  -0.556578269231
 O1 0.507746 0.386166 0.12659  -0.556578269231
 O1 0.126991 0.978924 0.50754  -0.556578269231
 O1 0.979347 0.12662 0.38618  -0.556578269231
 O1 0.97959 0.507458 0.1267  -0.556578269231
 O1 0.126761 0.386228 0.97907  -0.556578269231
 O1 0.508061 0.978996 0.38615  -0.556578269231
 O1 0.38633 0.126742 0.50729  -0.556578269231
 O1 0.126691 0.507856 0.38615  -0.556578269231
 O1 0.979327 0.386171 0.50775  -0.556578269231
 O1 0.386106 0.979408 0.12652  -0.556578269231
 O1 0.508008 0.126572 0.97932  -0.556578269231
