#======================================================================

# CRYSTAL DATA

#----------------------------------------------------------------------

data_VESTA_phase_1


_pd_phase_name                         MOF
_cell_length_a                         12.95900
_cell_length_b                         17.97500
_cell_length_c                         18.84300
_cell_angle_alpha                      89.99900
_cell_angle_beta                       90.00000
_cell_angle_gamma                      111.08700
_symmetry_space_group_name_H-M         "P 1"
_symmetry_Int_Tables_number            1

loop_
_symmetry_equiv_pos_as_xyz
   "x, y, z"

loop_
   _atom_site_label
   _atom_site_fract_x
   _atom_site_fract_y
   _atom_site_fract_z
 _atom_site_charge
 Y1 0.338575 0.176618 0.37496  2.07148375
 Y1 0.338575 0.176621 0.87495  2.07148375
 Y1 0.33858 0.676598 0.37496  2.07148375
 Y1 0.338579 0.676601 0.87495  2.07148375
 Y1 0.838538 0.17756 0.37499  2.07148375
 Y1 0.838537 0.177563 0.87498  2.07148375
 Y1 0.838582 0.677564 0.37499  2.07148375
 Y1 0.83858 0.677567 0.87498  2.07148375
 Y1 0.161352 0.322476 0.37498  2.07148375
 Y1 0.161351 0.322478 0.87497  2.07148375
 Y1 0.161395 0.822479 0.37498  2.07148375
 Y1 0.161395 0.822482 0.87497  2.07148375
 Y1 0.661347 0.323441 0.37501  2.07148375
 Y1 0.661346 0.323444 0.87500  2.07148375
 Y1 0.661353 0.82342 0.37501  2.07148375
 Y1 0.661351 0.823424 0.87500  2.07148375
 Y1 0.161353 0.322476 0.12500  2.07148375
 Y1 0.161352 0.322479 0.62499  2.07148375
 Y1 0.161397 0.82248 0.12500  2.07148375
 Y1 0.161396 0.822483 0.6249  2.07148375
 Y1 0.661345 0.323441 0.12497  2.07148375
 Y1 0.661343 0.323444 0.62495  2.07148375
 Y1 0.66135 0.823421 0.1249  2.07148375
 Y1 0.661349 0.823424 0.62495  2.07148375
 Y1 0.338578 0.176619 0.12502  2.07148375
 Y1 0.338577 0.176622 0.62501  2.07148375
 Y1 0.338583 0.676598 0.12502  2.07148375
 Y1 0.338583 0.676601 0.62501  2.07148375
 Y1 0.838537 0.17756 0.12499  2.07148375
 Y1 0.838536 0.177563 0.62498  2.07148375
 Y1 0.83858 0.677564 0.12499  2.07148375
 Y1 0.838579 0.677567 0.62498  2.07148375
 C1 0.307501 0.499439 0.36345  0.55795375
 C1 0.307497 0.499442 0.86343  0.55795375
 C1 0.307509 0.999448 0.36345  0.55795375
 C1 0.307503 0.99945 0.8634  0.55795375
 C1 0.807837 0.500505 0.36342  0.55795375
 C1 0.807833 0.500508 0.86340  0.55795375
 C1 0.807822 0.0 0.3634  0.55795375
 C1 0.807821 0.0 0.8634  0.55795375
 C2 0.030382 0.295882 0.24999  0.98547875
 C2 0.030382 0.295887 0.74998  0.98547875
 C2 0.030435 0.795885 0.24999  0.98547875
 C2 0.030434 0.79589 0.74998  0.98547875
 C2 0.52992 0.295953 0.24999  0.98547875
 C2 0.529919 0.295956 0.74998  0.98547875
 C2 0.529924 0.795926 0.24999  0.98547875
 C2 0.529923 0.79593 0.74998  0.98547875
 C1 0.192114 0.999552 0.11342  0.55795375
 C1 0.192114 0.999555 0.61341  0.55795375
 C1 0.1921 0.499535 0.11342  0.55795375
 C1 0.192099 0.499538 0.61341  0.55795375
 C1 0.692422 0.000596 0.11345  0.55795375
 C1 0.692422 0.000599 0.61344  0.55795375
 C1 0.692432 0.500605 0.11345  0.55795375
 C1 0.692431 0.500608 0.61344  0.55795375
 C2 0.470005 0.204116 0.49998  0.98547875
 C2 0.470006 0.204116 0.99997  0.98547875
 C2 0.47001 0.704089 0.49998  0.98547875
 C2 0.470009 0.704088 0.99997  0.98547875
 C2 0.969494 0.204158 0.4999  0.98547875
 C2 0.969494 0.204158 0.99997  0.98547875
 C2 0.969547 0.704161 0.4999  0.98547875
 C2 0.969546 0.704161 0.99997  0.98547875
 C1 0.192096 0.499534 0.38656  0.55795375
 C1 0.192093 0.499537 0.8865  0.55795375
 C1 0.192099 0.999532 0.38656  0.55795375
 C1 0.192094 0.999535 0.88654  0.55795375
 C1 0.692436 0.500604 0.38653  0.55795375
 C1 0.692432 0.500608 0.8865  0.55795375
 C1 0.692416 0.0 0.38653  0.55795375
 C1 0.692415 0.0 0.88652  0.55795375
 C2 0.265205 0.29513 0.  0.98547875
 C2 0.265205 0.29513 0.49998  0.98547875
 C2 0.265253 0.795131 0.  0.98547875
 C2 0.265251 0.795131 0.49998  0.98547875
 C2 0.765747 0.296401 1e-0  0.98547875
 C2 0.765746 0.296401 0.49998  0.98547875
 C2 0.765757 0.79639 1e-0  0.98547875
 C2 0.765757 0.79639 0.49998  0.98547875
 C1 0.307522 0.999465 0.13653  0.55795375
 C1 0.307522 0.999468 0.63652  0.55795375
 C1 0.307504 0.499438 0.13653  0.55795375
 C1 0.307502 0.499441 0.63652  0.55795375
 C1 0.807826 0.000505 0.13657  0.55795375
 C1 0.807826 0.000509 0.63655  0.55795375
 C1 0.807833 0.500504 0.1365  0.55795375
 C1 0.807831 0.500507 0.63655  0.55795375
 C2 0.234171 0.203639 0.24999  0.98547875
 C2 0.234169 0.203642 0.74998  0.98547875
 C2 0.234181 0.703627 0.24999  0.98547875
 C2 0.23418 0.70363 0.74998  0.98547875
 C2 0.734676 0.204914 0.24999  0.98547875
 C2 0.734674 0.204919 0.74998  0.98547875
 C2 0.734724 0.704917 0.24999  0.98547875
 C2 0.734721 0.70492 0.74998  0.98547875
 O1 0.383043 0.067032 0.35505  -0.61400375
 O1 0.383045 0.067034 0.85504  -0.61400375
 O1 0.383029 0.567002 0.35505  -0.61400375
 O1 0.383029 0.567005 0.85504  -0.61400375
 O1 0.883416 0.068065 0.35506  -0.61400375
 O1 0.883414 0.068068 0.85504  -0.61400375
 O1 0.883429 0.56806 0.35506  -0.61400375
 O1 0.883429 0.568063 0.85505  -0.61400375
 O1 0.315494 0.431834 0.35509  -0.61400375
 O1 0.315494 0.431837 0.8550  -0.61400375
 O1 0.315515 0.931846 0.35510  -0.61400375
 O1 0.315516 0.931849 0.85509  -0.61400375
 O1 0.81568 0.432859 0.35504  -0.61400375
 O1 0.815678 0.432862 0.85503  -0.61400375
 O1 0.815677 0.932846 0.35504  -0.61400375
 O1 0.815674 0.932848 0.85503  -0.61400375
 O2 0.484409 0.27093 0.31087  -0.79563625
 O2 0.484408 0.270934 0.81086  -0.79563625
 O2 0.484415 0.770899 0.31087  -0.79563625
 O2 0.484414 0.770903 0.81086  -0.79563625
 O2 0.984655 0.271103 0.31086  -0.79563625
 O2 0.984654 0.271108 0.81085  -0.79563625
 O2 0.98471 0.771103 0.31086  -0.79563625
 O2 0.984708 0.771108 0.81085  -0.79563625
 O2 0.131584 0.345867 0.24999  -0.79563625
 O2 0.131585 0.345871 0.74998  -0.79563625
 O2 0.131635 0.845875 0.24999  -0.79563625
 O2 0.131634 0.845879 0.74998  -0.79563625
 O2 0.63081 0.346495 0.24999  -0.79563625
 O2 0.630809 0.346498 0.74998  -0.79563625
 O2 0.630809 0.846474 0.24999  -0.79563625
 O2 0.630809 0.846478 0.74998  -0.79563625
 O2 0.48441 0.270929 0.18911  -0.79563625
 O2 0.484409 0.270933 0.68910  -0.79563625
 O2 0.484416 0.770899 0.18911  -0.79563625
 O2 0.484415 0.770903 0.68910  -0.79563625
 O2 0.984655 0.271103 0.18912  -0.79563625
 O2 0.984655 0.271109 0.68911  -0.79563625
 O2 0.98471 0.771104 0.18912  -0.79563625
 O2 0.984709 0.771109 0.68911  -0.79563625
 O1 0.116511 0.431978 0.1050  -0.61400375
 O1 0.116511 0.431981 0.60505  -0.61400375
 O1 0.116525 0.931974 0.10506  -0.61400375
 O1 0.116523 0.931977 0.60505  -0.61400375
 O1 0.616901 0.433043 0.10505  -0.61400375
 O1 0.616898 0.433047 0.60504  -0.61400375
 O1 0.616887 0.933014 0.10505  -0.61400375
 O1 0.616886 0.933017 0.60504  -0.61400375
 O1 0.184253 0.067193 0.10505  -0.61400375
 O1 0.184251 0.067196 0.60504  -0.61400375
 O1 0.184249 0.567179 0.10505  -0.61400375
 O1 0.184248 0.567182 0.60503  -0.61400375
 O1 0.684422 0.068199 0.10510  -0.61400375
 O1 0.684421 0.068203 0.60509  -0.61400375
 O1 0.684442 0.568211 0.10510  -0.61400375
 O1 0.68444 0.568215 0.60509  -0.61400375
 O2 0.015216 0.228942 0.0608  -0.79563625
 O2 0.015215 0.228944 0.56085  -0.79563625
 O2 0.015272 0.728942 0.0608  -0.79563625
 O2 0.015271 0.728943 0.56085  -0.79563625
 O2 0.515512 0.229148 0.06088  -0.79563625
 O2 0.51551 0.22915 0.56086  -0.79563625
 O2 0.515518 0.729116 0.06088  -0.79563625
 O2 0.515516 0.72912 0.56086  -0.79563625
 O2 0.369127 0.153558 0.49998  -0.79563625
 O2 0.369127 0.153558 0.99997  -0.79563625
 O2 0.369127 0.653536 0.49998  -0.79563625
 O2 0.369126 0.653536 0.99997  -0.79563625
 O2 0.8683 0.154162 0.4999  -0.79563625
 O2 0.868299 0.154162 0.99997  -0.79563625
 O2 0.868349 0.65417 0.4999  -0.79563625
 O2 0.868348 0.65417 0.99997  -0.79563625
 O2 0.015218 0.228944 0.43912  -0.79563625
 O2 0.015216 0.228945 0.93910  -0.79563625
 O2 0.015273 0.728943 0.43912  -0.79563625
 O2 0.015271 0.728945 0.93910  -0.79563625
 O2 0.515512 0.229148 0.43910  -0.79563625
 O2 0.515512 0.22915 0.93909  -0.79563625
 O2 0.515518 0.729118 0.43910  -0.79563625
 O2 0.515517 0.729119 0.93909  -0.79563625
 O1 0.184246 0.06719 0.39493  -0.61400375
 O1 0.184248 0.067193 0.8949  -0.61400375
 O1 0.184241 0.567178 0.39493  -0.61400375
 O1 0.184241 0.567181 0.89492  -0.61400375
 O1 0.684424 0.068197 0.39488  -0.61400375
 O1 0.684422 0.068201 0.89487  -0.61400375
 O1 0.684443 0.56821 0.39488  -0.61400375
 O1 0.684443 0.568214 0.89487  -0.61400375
 O1 0.116505 0.431977 0.39491  -0.61400375
 O1 0.116505 0.431979 0.89490  -0.61400375
 O1 0.116519 0.931971 0.39491  -0.61400375
 O1 0.116521 0.931974 0.89491  -0.61400375
 O1 0.616902 0.433043 0.39492  -0.61400375
 O1 0.616902 0.433046 0.8949  -0.61400375
 O1 0.616889 0.933012 0.39492  -0.61400375
 O1 0.616888 0.933016 0.89491  -0.61400375
 O2 0.285851 0.270168 0.43912  -0.79563625
 O2 0.285852 0.27017 0.9391  -0.79563625
 O2 0.285894 0.770168 0.43912  -0.79563625
 O2 0.285895 0.770169 0.9391  -0.79563625
 O2 0.786519 0.271539 0.43910  -0.79563625
 O2 0.786519 0.27154 0.93909  -0.79563625
 O2 0.786533 0.771529 0.43910  -0.79563625
 O2 0.786533 0.77153 0.93909  -0.79563625
 O2 0.214534 0.345515 0.  -0.79563625
 O2 0.214534 0.345516 0.49998  -0.79563625
 O2 0.214585 0.845519 0.  -0.79563625
 O2 0.214584 0.84552 0.49998  -0.79563625
 O2 0.714815 0.346639 0.  -0.79563625
 O2 0.714815 0.346639 0.49998  -0.79563625
 O2 0.714815 0.84662 0.  -0.79563625
 O2 0.714815 0.84662 0.49998  -0.79563625
 O2 0.285855 0.270169 0.06086  -0.79563625
 O2 0.285856 0.270172 0.56085  -0.79563625
 O2 0.285901 0.77017 0.06086  -0.79563625
 O2 0.285899 0.770171 0.56085  -0.79563625
 O2 0.78652 0.27154 0.06088  -0.79563625
 O2 0.786519 0.271541 0.56087  -0.79563625
 O2 0.786533 0.77153 0.06088  -0.79563625
 O2 0.786533 0.771531 0.56087  -0.79563625
 O1 0.315497 0.431832 0.14488  -0.61400375
 O1 0.315497 0.431835 0.64487  -0.61400375
 O1 0.315517 0.931846 0.14488  -0.61400375
 O1 0.315516 0.931849 0.64487  -0.61400375
 O1 0.815676 0.432857 0.14494  -0.61400375
 O1 0.815672 0.43286 0.64493  -0.61400375
 O1 0.815671 0.932844 0.14494  -0.61400375
 O1 0.815669 0.932847 0.64493  -0.61400375
 O1 0.383047 0.067031 0.14493  -0.61400375
 O1 0.383045 0.067034 0.64492  -0.61400375
 O1 0.383034 0.567 0.14493  -0.61400375
 O1 0.383033 0.567004 0.64492  -0.61400375
 O1 0.883412 0.068063 0.14492  -0.61400375
 O1 0.883411 0.068066 0.64491  -0.61400375
 O1 0.883426 0.568058 0.14492  -0.61400375
 O1 0.883424 0.568061 0.64491  -0.61400375
 O2 0.213395 0.228501 0.18911  -0.79563625
 O2 0.213394 0.228503 0.68910  -0.79563625
 O2 0.213409 0.72849 0.18911  -0.79563625
 O2 0.213407 0.728493 0.68910  -0.79563625
 O2 0.714027 0.229874 0.1891  -0.79563625
 O2 0.714024 0.229877 0.68911  -0.79563625
 O2 0.714071 0.729874 0.1891  -0.79563625
 O2 0.714069 0.729877 0.68911  -0.79563625
 O2 0.285113 0.153408 0.24999  -0.79563625
 O2 0.285111 0.15341 0.74998  -0.79563625
 O2 0.285113 0.653389 0.24999  -0.79563625
 O2 0.285111 0.653392 0.74998  -0.79563625
 O2 0.785348 0.154529 0.24999  -0.79563625
 O2 0.785349 0.154534 0.74998  -0.79563625
 O2 0.7854 0.654534 0.24999  -0.79563625
 O2 0.785399 0.654538 0.74998  -0.79563625
 O2 0.213396 0.228501 0.31087  -0.79563625
 O2 0.213393 0.228502 0.81086  -0.79563625
 O2 0.21341 0.728491 0.31087  -0.79563625
 O2 0.213408 0.728493 0.81086  -0.79563625
 O2 0.71403 0.229873 0.31086  -0.79563625
 O2 0.714027 0.229877 0.8108  -0.79563625
 O2 0.714075 0.729875 0.31086  -0.79563625
 O2 0.714072 0.729878 0.81084  -0.79563625
