#======================================================================

# CRYSTAL DATA

#----------------------------------------------------------------------

data_VESTA_phase_1


_pd_phase_name                         MOF
_cell_length_a                         11.32500
_cell_length_b                         19.51000
_cell_length_c                         25.16900
_cell_angle_alpha                      90.00400
_cell_angle_beta                       90.07900
_cell_angle_gamma                      97.19800
_symmetry_space_group_name_H-M         "P 1"
_symmetry_Int_Tables_number            1

loop_
_symmetry_equiv_pos_as_xyz
   "x, y, z"

loop_
   _atom_site_label
   _atom_site_fract_x
   _atom_site_fract_y
   _atom_site_fract_z
 _atom_site_charge
 Zn1 0.054739 0.560688 0.53061  0.938068194444
 Zn1 0.554735 0.560688 0.53061  0.938068194444
 Zn1 0.445321 0.939227 0.03054  0.938068194444
 Zn1 0.945318 0.939227 0.03054  0.938068194444
 Zn1 0.445289 0.439309 0.46938  0.938068194444
 Zn1 0.945285 0.439308 0.4693  0.938068194444
 Zn1 0.054707 0.060772 0.9694  0.938068194444
 Zn1 0.554705 0.060772 0.9694  0.938068194444
 H1 0.229209 0.90674 0.10345  0.122041944444
 H1 0.729206 0.90674 0.10345  0.122041944444
 H1 0.184859 0.831414 0.183  0.122041944444
 H1 0.684856 0.831414 0.183  0.122041944444
 H1 0.498477 0.73493 0.14732  0.122041944444
 H1 0.998474 0.73493 0.14732  0.122041944444
 H1 0.029994 0.81359 0.06817  0.122041944444
 H1 0.529991 0.81359 0.06817  0.122041944444
 H1 0.052238 0.586807 0.24560  0.122041944444
 H1 0.552233 0.586808 0.24560  0.122041944444
 H1 0.022868 0.519235 0.33047  0.122041944444
 H1 0.522864 0.519236 0.33047  0.122041944444
 H1 0.031582 0.694848 0.42703  0.122041944444
 H1 0.531577 0.694849 0.42703  0.122041944444
 H1 0.051344 0.765683 0.34351  0.122041944444
 H1 0.55134 0.765683 0.34351  0.122041944444
 H1 0.271568 0.593814 0.60335  0.122041944444
 H1 0.771564 0.593813 0.60335  0.122041944444
 H1 0.315435 0.669053 0.68371  0.122041944444
 H1 0.815431 0.669052 0.68371  0.122041944444
 H1 0.001393 0.765132 0.64689  0.122041944444
 H1 0.501391 0.765132 0.64689  0.122041944444
 H1 0.470438 0.686569 0.56761  0.122041944444
 H1 0.970434 0.686569 0.56761  0.122041944444
 H1 0.446786 0.914092 0.74608  0.122041944444
 H1 0.946784 0.914091 0.74608  0.122041944444
 H1 0.475721 0.98129 0.83117  0.122041944444
 H1 0.975718 0.98129 0.83117  0.122041944444
 H1 0.467581 0.804648 0.92661  0.122041944444
 H1 0.967576 0.804649 0.92661  0.122041944444
 H1 0.448309 0.734002 0.84292  0.122041944444
 H1 0.948304 0.734004 0.84292  0.122041944444
 H1 0.27082 0.093256 0.89654  0.122041944444
 H1 0.770816 0.093255 0.89654  0.122041944444
 H1 0.315171 0.168581 0.81629  0.122041944444
 H1 0.815167 0.168581 0.81629  0.122041944444
 H1 0.001554 0.265067 0.8526  0.122041944444
 H1 0.50155 0.265067 0.85267  0.122041944444
 H1 0.470036 0.186407 0.93181  0.122041944444
 H1 0.970032 0.186406 0.93181  0.122041944444
 H1 0.447796 0.413187 0.75438  0.122041944444
 H1 0.947791 0.413188 0.75438  0.122041944444
 H1 0.477163 0.480759 0.66952  0.122041944444
 H1 0.97716 0.480759 0.66952  0.122041944444
 H1 0.468448 0.305145 0.57296  0.122041944444
 H1 0.968444 0.305144 0.57296  0.122041944444
 H1 0.448685 0.234312 0.6564  0.122041944444
 H1 0.948684 0.23431 0.6564  0.122041944444
 H1 0.22846 0.406183 0.3966  0.122041944444
 H1 0.728457 0.406182 0.3966  0.122041944444
 H1 0.184593 0.330944 0.31628  0.122041944444
 H1 0.68459 0.330944 0.31628  0.122041944444
 H1 0.498634 0.234864 0.35310  0.122041944444
 H1 0.998631 0.234864 0.35310  0.122041944444
 H1 0.02959 0.313427 0.43238  0.122041944444
 H1 0.529587 0.313427 0.43238  0.122041944444
 H1 0.053243 0.085904 0.25391  0.122041944444
 H1 0.55324 0.085904 0.25391  0.122041944444
 H1 0.024312 0.0 0.16882  0.122041944444
 H1 0.524307 0.0 0.16882  0.122041944444
 H1 0.03245 0.195348 0.07338  0.122041944444
 H1 0.532446 0.19535 0.07338  0.122041944444
 H1 0.051722 0.265994 0.15707  0.122041944444
 H1 0.551716 0.265996 0.15707  0.122041944444
 C1 0.286107 0.867787 0.11434  0.191493194444
 C1 0.786103 0.867787 0.11434  0.191493194444
 C2 0.261771 0.825994 0.15880  -0.108880138889
 C2 0.761768 0.825995 0.15880  -0.108880138889
 C3 0.339631 0.778382 0.17130  0.266988194444
 C3 0.839627 0.778381 0.17130  0.266988194444
 C2 0.436513 0.771814 0.13839  -0.108880138889
 C2 0.93651 0.771814 0.13839  -0.108880138889
 C1 0.454599 0.815354 0.09477  0.191493194444
 C1 0.954596 0.815353 0.09477  0.191493194444
 C4 0.221548 0.688648 0.22351  0.528508194444
 C4 0.721547 0.688645 0.22351  0.528508194444
 C5 0.210659 0.647753 0.27295  -0.0693643055556
 C5 0.710654 0.647755 0.27295  -0.0693643055556
 C5 0.295379 0.660381 0.31462  -0.0693643055556
 C5 0.795375 0.660383 0.31462  -0.0693643055556
 C5 0.394549 0.712003 0.30831  -0.0693643055556
 C5 0.894545 0.712004 0.30831  -0.0693643055556
 C4 0.413897 0.751542 0.25853  0.528508194444
 C4 0.913897 0.751539 0.25853  0.528508194444
 C2 0.115514 0.596042 0.2782  -0.108880138889
 C2 0.615508 0.596044 0.27824  -0.108880138889
 C2 0.099994 0.557995 0.32542  -0.108880138889
 C2 0.599992 0.557994 0.32542  -0.108880138889
 C5 0.178308 0.57082 0.36790  -0.0693643055556
 C5 0.678305 0.57082 0.36790  -0.0693643055556
 C5 0.281251 0.620792 0.36287  -0.0693643055556
 C5 0.78125 0.620791 0.36287  -0.0693643055556
 C5 0.371443 0.63354 0.40270  -0.0693643055556
 C5 0.871442 0.633539 0.40270  -0.0693643055556
 C2 0.464268 0.686642 0.39598  -0.108880138889
 C2 0.964267 0.68664 0.39598  -0.108880138889
 C2 0.476274 0.725684 0.34922  -0.108880138889
 C2 0.97627 0.725685 0.34922  -0.108880138889
 C6 0.136897 0.536781 0.41952  0.666163194444
 C6 0.636887 0.536782 0.4195  0.666163194444
 C6 0.387035 0.585531 0.44839  0.666163194444
 C6 0.887024 0.58553 0.44839  0.666163194444
 C1 0.214517 0.632701 0.61414  0.191493194444
 C1 0.714514 0.632701 0.61414  0.191493194444
 C2 0.238577 0.674448 0.65868  -0.108880138889
 C2 0.738573 0.674447 0.65868  -0.108880138889
 C3 0.160442 0.721907 0.67110  0.266988194444
 C3 0.660441 0.721907 0.67110  0.266988194444
 C2 0.0636 0.728391 0.63802  -0.108880138889
 C2 0.563596 0.72839 0.63802  -0.108880138889
 C1 0.045828 0.684915 0.59432  0.191493194444
 C1 0.545826 0.684915 0.59432  0.191493194444
 C4 0.278125 0.811741 0.72358  0.528508194444
 C4 0.778118 0.811744 0.72358  0.528508194444
 C5 0.288664 0.852659 0.77305  -0.0693643055556
 C5 0.788663 0.852657 0.77305  -0.0693643055556
 C5 0.203862 0.839777 0.81455  -0.0693643055556
 C5 0.70386 0.839775 0.81455  -0.0693643055556
 C5 0.104952 0.78802 0.80806  -0.0693643055556
 C5 0.604951 0.788017 0.80806  -0.0693643055556
 C4 0.085969 0.748456 0.75827  0.528508194444
 C4 0.585963 0.748459 0.75827  0.528508194444
 C2 0.383447 0.904593 0.7785  -0.108880138889
 C2 0.883445 0.904591 0.77859  -0.108880138889
 C2 0.398755 0.942442 0.82592  -0.108880138889
 C2 0.89875 0.942442 0.82592  -0.108880138889
 C5 0.320472 0.929222 0.8682  -0.0693643055556
 C5 0.820467 0.929223 0.86826  -0.0693643055556
 C5 0.217724 0.87917 0.86290  -0.0693643055556
 C5 0.71772 0.879171 0.86290  -0.0693643055556
 C5 0.127571 0.866171 0.90258  -0.0693643055556
 C5 0.627567 0.866171 0.90258  -0.0693643055556
 C2 0.034881 0.813026 0.89565  -0.108880138889
 C2 0.534877 0.813026 0.89565  -0.108880138889
 C2 0.023167 0.77411 0.8488  -0.108880138889
 C2 0.523166 0.774108 0.84882  -0.108880138889
 C6 0.361519 0.962626 0.92021  0.666163194444
 C6 0.861525 0.962625 0.92021  0.666163194444
 C6 0.111984 0.913973 0.94837  0.666163194444
 C6 0.611988 0.913973 0.94837  0.666163194444
 C1 0.213924 0.13221 0.88565  0.191493194444
 C1 0.713919 0.132209 0.88565  0.191493194444
 C2 0.238259 0.174001 0.84119  -0.108880138889
 C2 0.738256 0.174001 0.84119  -0.108880138889
 C3 0.160402 0.221615 0.8286  0.266988194444
 C3 0.660396 0.221614 0.8286  0.266988194444
 C2 0.063517 0.228182 0.86160  -0.108880138889
 C2 0.563515 0.228183 0.86160  -0.108880138889
 C1 0.045431 0.184644 0.90522  0.191493194444
 C1 0.545428 0.184643 0.90522  0.191493194444
 C4 0.278478 0.311353 0.77648  0.528508194444
 C4 0.778481 0.311348 0.77647  0.528508194444
 C5 0.289374 0.35224 0.72703  -0.0693643055556
 C5 0.789367 0.352243 0.7270  -0.0693643055556
 C5 0.204653 0.339612 0.68537  -0.0693643055556
 C5 0.704647 0.339615 0.68537  -0.0693643055556
 C5 0.105485 0.287989 0.69168  -0.0693643055556
 C5 0.605477 0.287993 0.69168  -0.0693643055556
 C4 0.086127 0.248459 0.74146  0.528508194444
 C4 0.58613 0.248454 0.74146  0.528508194444
 C2 0.384521 0.40395 0.72175  -0.108880138889
 C2 0.884514 0.403952 0.72175  -0.108880138889
 C2 0.400034 0.442001 0.67457  -0.108880138889
 C2 0.900033 0.442 0.67457  -0.108880138889
 C5 0.32172 0.429175 0.63209  -0.0693643055556
 C5 0.821718 0.429175 0.63209  -0.0693643055556
 C5 0.218776 0.379204 0.63712  -0.0693643055556
 C5 0.718775 0.379202 0.63712  -0.0693643055556
 C5 0.128583 0.366455 0.59729  -0.0693643055556
 C5 0.628582 0.366454 0.59729  -0.0693643055556
 C2 0.03576 0.313353 0.60401  -0.108880138889
 C2 0.535758 0.313352 0.60401  -0.108880138889
 C2 0.023758 0.274308 0.65077  -0.108880138889
 C2 0.523751 0.274311 0.65077  -0.108880138889
 C6 0.36314 0.463214 0.58047  0.666163194444
 C6 0.863123 0.463216 0.58047  0.666163194444
 C6 0.113004 0.414462 0.55159  0.666163194444
 C6 0.612986 0.414461 0.55159  0.666163194444
 C1 0.28551 0.367295 0.38585  0.191493194444
 C1 0.785508 0.367295 0.38585  0.191493194444
 C2 0.261451 0.32555 0.34131  -0.108880138889
 C2 0.761447 0.325549 0.34131  -0.108880138889
 C3 0.339584 0.27809 0.32889  0.266988194444
 C3 0.839582 0.27809 0.32889  0.266988194444
 C2 0.436428 0.271606 0.36197  -0.108880138889
 C2 0.936424 0.271605 0.36197  -0.108880138889
 C1 0.454199 0.315081 0.40567  0.191493194444
 C1 0.954196 0.315081 0.40567  0.191493194444
 C4 0.221907 0.188253 0.27641  0.528508194444
 C4 0.721898 0.188257 0.27641  0.528508194444
 C5 0.211362 0.14734 0.22694  -0.0693643055556
 C5 0.711362 0.147337 0.22694  -0.0693643055556
 C5 0.296166 0.160222 0.1854  -0.0693643055556
 C5 0.796165 0.160219 0.18544  -0.0693643055556
 C5 0.395075 0.21198 0.19193  -0.0693643055556
 C5 0.895075 0.211977 0.19193  -0.0693643055556
 C4 0.414061 0.25154 0.24172  0.528508194444
 C4 0.914052 0.251544 0.24172  0.528508194444
 C2 0.116583 0.095404 0.22140  -0.108880138889
 C2 0.616581 0.095402 0.22140  -0.108880138889
 C2 0.101278 0.057554 0.17407  -0.108880138889
 C2 0.601272 0.057555 0.17407  -0.108880138889
 C5 0.179562 0.070773 0.13172  -0.0693643055556
 C5 0.679556 0.070774 0.13172  -0.0693643055556
 C5 0.282308 0.120826 0.13709  -0.0693643055556
 C5 0.782303 0.120827 0.13709  -0.0693643055556
 C5 0.37246 0.133827 0.09741  -0.0693643055556
 C5 0.872455 0.133827 0.09741  -0.0693643055556
 C2 0.46515 0.186971 0.1043  -0.108880138889
 C2 0.965146 0.186971 0.1043  -0.108880138889
 C2 0.476859 0.225891 0.15117  -0.108880138889
 C2 0.976859 0.225888 0.15117  -0.108880138889
 C6 0.138502 0.037374 0.07978  0.666163194444
 C6 0.63851 0.037372 0.07978  0.666163194444
 C6 0.38804 0.086024 0.05162  0.666163194444
 C6 0.888048 0.086024 0.05162  0.666163194444
 N1 0.382033 0.863292 0.08324  -0.334651805556
 N1 0.88203 0.863292 0.08324  -0.334651805556
 N2 0.323923 0.738062 0.21916  -0.263921805556
 N2 0.823917 0.738065 0.21916  -0.263921805556
 N1 0.118689 0.637142 0.58285  -0.334651805556
 N1 0.618685 0.637142 0.58285  -0.334651805556
 N2 0.17586 0.762214 0.71901  -0.263921805556
 N2 0.675861 0.76221 0.71901  -0.263921805556
 N1 0.117997 0.136705 0.91675  -0.334651805556
 N1 0.617994 0.136705 0.91675  -0.334651805556
 N2 0.176114 0.261929 0.7808  -0.263921805556
 N2 0.676103 0.261935 0.78083  -0.263921805556
 N1 0.381339 0.362854 0.41714  -0.334651805556
 N1 0.881335 0.362854 0.41714  -0.334651805556
 N2 0.324163 0.237787 0.28098  -0.263921805556
 N2 0.824166 0.237782 0.28098  -0.263921805556
 O1 0.145796 0.575817 0.46036  -0.580996805556
 O1 0.645794 0.575816 0.46036  -0.580996805556
 O1 0.0864 0.475249 0.41693  -0.580996805556
 O1 0.586399 0.475248 0.41693  -0.580996805556
 O1 0.369391 0.521188 0.43738  -0.580996805556
 O1 0.869389 0.521187 0.43738  -0.580996805556
 O1 0.429533 0.612494 0.49115  -0.580996805556
 O1 0.929532 0.612494 0.49115  -0.580996805556
 O2 0.148962 0.680785 0.1869  -0.480846805556
 O2 0.648959 0.680785 0.1869  -0.480846805556
 O2 0.000652 0.794753 0.25041  -0.480846805556
 O2 0.500649 0.794753 0.25041  -0.480846805556
 O1 0.353199 0.922835 0.96061  -0.580996805556
 O1 0.853194 0.922836 0.96061  -0.580996805556
 O1 0.411094 0.024389 0.91843  -0.580996805556
 O1 0.911088 0.02439 0.91843  -0.580996805556
 O1 0.129653 0.978396 0.9375  -0.580996805556
 O1 0.629648 0.978396 0.93752  -0.580996805556
 O1 0.069816 0.886768 0.99103  -0.580996805556
 O1 0.569809 0.886768 0.99103  -0.580996805556
 O2 0.350871 0.819605 0.68718  -0.480846805556
 O2 0.850868 0.819604 0.68718  -0.480846805556
 O2 0.499486 0.705037 0.75010  -0.480846805556
 O2 0.999482 0.705037 0.75010  -0.480846805556
 O1 0.35423 0.42418 0.53962  -0.580996805556
 O1 0.85423 0.424179 0.53962  -0.580996805556
 O1 0.413622 0.524749 0.58306  -0.580996805556
 O1 0.913624 0.524747 0.58306  -0.580996805556
 O1 0.130628 0.478805 0.5626  -0.580996805556
 O1 0.630628 0.478805 0.56260  -0.580996805556
 O1 0.070488 0.387496 0.50884  -0.580996805556
 O1 0.57049 0.387496 0.50883  -0.580996805556
 O2 0.351066 0.319214 0.81303  -0.480846805556
 O2 0.851062 0.319214 0.81303  -0.480846805556
 O2 0.499375 0.205245 0.74958  -0.480846805556
 O2 0.999373 0.205245 0.74958  -0.480846805556
 O1 0.146837 0.077162 0.03938  -0.580996805556
 O1 0.646832 0.077163 0.03938  -0.580996805556
 O1 0.088941 0.975607 0.08156  -0.580996805556
 O1 0.588933 0.975609 0.08156  -0.580996805556
 O1 0.370378 0.021601 0.06246  -0.580996805556
 O1 0.870371 0.021601 0.06246  -0.580996805556
 O1 0.430217 0.113229 0.00896  -0.580996805556
 O1 0.930209 0.113229 0.00896  -0.580996805556
 O2 0.149153 0.180396 0.31281  -0.480846805556
 O2 0.649151 0.180395 0.31281  -0.480846805556
 O2 0.00054 0.294963 0.24989  -0.480846805556
 O2 0.500535 0.294963 0.24989  -0.480846805556
