#======================================================================

# CRYSTAL DATA

#----------------------------------------------------------------------

data_VESTA_phase_1


_pd_phase_name                         MOF
_cell_length_a                         12.76500
_cell_length_b                         15.35700
_cell_length_c                         18.61100
_cell_angle_alpha                      90.01400
_cell_angle_beta                       90.10400
_cell_angle_gamma                      90.28300
_symmetry_space_group_name_H-M         "P 1"
_symmetry_Int_Tables_number            1

loop_
_symmetry_equiv_pos_as_xyz
   "x, y, z"

loop_
   _atom_site_label
   _atom_site_fract_x
   _atom_site_fract_y
   _atom_site_fract_z
 _atom_site_charge
 Zn1 0.213105 0.07757 0.25283  1.03512367647
 Zn2 0.151001 0.192612 0.37498  1.02602367647
 Zn1 0.289079 0.922412 0.75285  1.03512367647
 Zn2 0.350152 0.80728 0.87496  1.02602367647
 Zn1 0.79022 0.574819 0.24710  1.03512367647
 Zn2 0.849407 0.692151 0.1252  1.02602367647
 Zn1 0.711677 0.422574 0.74987  1.03512367647
 Zn2 0.649319 0.307145 0.62828  1.02602367647
 H1 0.516864 0.978975 0.31947  0.102683676471
 H1 0.687768 0.960903 0.38326  0.102683676471
 H1 0.732914 0.059298 0.48621  0.102683676471
 H1 0.440846 0.193087 0.45928  0.102683676471
 H1 0.211444 0.262219 0.07641  0.102683676471
 H1 0.165686 0.385854 0.99522  0.102683676471
 H1 0.041552 0.500597 0.03768  0.102683676471
 H1 0.015669 0.370207 0.24151  0.102683676471
 H1 0.985097 0.021695 0.8185  0.102683676471
 H1 0.813547 0.039215 0.88125  0.102683676471
 H1 0.767161 0.939662 0.98296  0.102683676471
 H1 0.05884 0.805273 0.95656  0.102683676471
 H1 0.291109 0.736868 0.57681  0.102683676471
 H1 0.336135 0.612242 0.49647  0.102683676471
 H1 0.459304 0.497321 0.54005  0.102683676471
 H1 0.486621 0.62986 0.74297  0.102683676471
 H1 0.484883 0.476132 0.18050  0.102683676471
 H1 0.312117 0.459084 0.11865  0.102683676471
 H1 0.265254 0.559139 0.01753  0.102683676471
 H1 0.558789 0.69356 0.04309  0.102683676471
 H1 0.78939 0.760678 0.42296  0.102683676471
 H1 0.834364 0.885256 0.50383  0.102683676471
 H1 0.95915 0.0 0.46153  0.102683676471
 H1 0.988195 0.868365 0.25870  0.102683676471
 H1 0.0 0.521753 0.68187  0.102683676471
 H1 0.187877 0.539223 0.6197  0.102683676471
 H1 0.233954 0.439621 0.51827  0.102683676471
 H1 0.940468 0.305189 0.54359  0.102683676471
 H1 0.712947 0.236769 0.92701  0.102683676471
 H1 0.666327 0.112074 0.  0.102683676471
 H1 0.541513 0.997366 0.96361  0.102683676471
 H1 0.515757 0.130114 0.7608  0.102683676471
 C1 0.366037 0.09765 0.34889  0.711464926471
 C2 0.467916 0.086247 0.38607  -0.178141323529
 C3 0.537958 0.021088 0.36435  -0.0327888235294
 C3 0.633163 0.011163 0.40019  -0.0327888235294
 C3 0.658841 0.065811 0.4575  -0.0327888235294
 C2 0.58965 0.131559 0.47899  -0.178141323529
 C3 0.494275 0.141723 0.44309  -0.0327888235294
 C1 0.618529 0.191606 0.53891  0.711464926471
 C1 0.142915 0.235828 0.21305  0.711464926471
 C3 0.158572 0.313243 0.09429  -0.0327888235294
 C3 0.132406 0.382273 0.04904  -0.0327888235294
 C3 0.063509 0.446544 0.07241  -0.0327888235294
 C2 0.020673 0.441975 0.14175  -0.178141323529
 C3 0.048209 0.373723 0.18762  -0.0327888235294
 C2 0.116759 0.309034 0.16395  -0.178141323529
 C1 0.943249 0.508218 0.16561  0.711464926471
 C1 0.135362 0.902214 0.84814  0.711464926471
 C2 0.032921 0.913311 0.88438  -0.178141323529
 C3 0.963347 0.978934 0.86278  -0.0327888235294
 C3 0.867798 0.988555 0.89802  -0.0327888235294
 C3 0.841387 0.933189 0.95469  -0.0327888235294
 C2 0.910072 0.866875 0.97584  -0.178141323529
 C3 0.005709 0.856966 0.94052  -0.0327888235294
 C1 0.880867 0.806359 0.03520  0.711464926471
 C1 0.359444 0.764043 0.71350  0.711464926471
 C3 0.343724 0.685815 0.59509  -0.0327888235294
 C3 0.36943 0.616234 0.55035  -0.0327888235294
 C3 0.437861 0.5519 0.57433  -0.0327888235294
 C2 0.480958 0.557037 0.643  -0.178141323529
 C3 0.453988 0.625885 0.68904  -0.0327888235294
 C2 0.385622 0.690521 0.66481  -0.178141323529
 C1 0.55769 0.490329 0.6679  0.711464926471
 C1 0.636087 0.596041 0.1507  0.711464926471
 C2 0.532959 0.584974 0.11489  -0.178141323529
 C3 0.462979 0.519184 0.13653  -0.0327888235294
 C3 0.366713 0.509827 0.10178  -0.0327888235294
 C3 0.339995 0.565505 0.04546  -0.0327888235294
 C2 0.409046 0.632001 0.02424  -0.178141323529
 C3 0.505376 0.641701 0.05915  -0.0327888235294
 C1 0.379627 0.692862 0.96521  0.711464926471
 C1 0.859387 0.73353 0.28709  0.711464926471
 C3 0.842712 0.811874 0.40521  -0.0327888235294
 C3 0.86838 0.881445 0.45025  -0.0327888235294
 C3 0.937735 0.945965 0.42698  -0.0327888235294
 C2 0.981749 0.941092 0.35800  -0.178141323529
 C3 0.954846 0.87217 0.31234  -0.0327888235294
 C2 0.88559 0.807288 0.33588  -0.178141323529
 C1 0.059197 0.008266 0.33453  0.711464926471
 C1 0.864173 0.402184 0.65199  0.711464926471
 C2 0.967017 0.413308 0.61589  -0.178141323529
 C3 0.0 0.478943 0.63769  -0.0327888235294
 C3 0.133156 0.488537 0.60279  -0.0327888235294
 C3 0.159396 0.433148 0.54621  -0.0327888235294
 C2 0.090125 0.366803 0.52476  -0.178141323529
 C3 0.994062 0.356935 0.55979  -0.0327888235294
 C1 0.119329 0.306261 0.46544  0.711464926471
 C1 0.643963 0.264236 0.79038  0.711464926471
 C3 0.659663 0.185764 0.90868  -0.0327888235294
 C3 0.633071 0.116141 0.95335  -0.0327888235294
 C3 0.563705 0.051913 0.92934  -0.0327888235294
 C2 0.520623 0.057147 0.8  -0.178141323529
 C3 0.548438 0.126018 0.81476  -0.0327888235294
 C2 0.617661 0.19058 0.83903  -0.178141323529
 C1 0.443002 0.990606 0.83559  0.711464926471
 O1 0.346772 0.048347 0.29397  -0.608307752101
 O1 0.303279 0.155294 0.37177  -0.608307752101
 O1 0.560442 0.259537 0.54908  -0.608307752101
 O2 0.697739 0.177777 0.57799  -0.495446323529
 O1 0.200194 0.174089 0.18736  -0.608307752101
 O1 0.106832 0.236938 0.27652  -0.608307752101
 O1 0.907209 0.499686 0.23028  -0.608307752101
 O1 0.915327 0.5669 0.12207  -0.608307752101
 O1 0.155448 0.951816 0.79361  -0.608307752101
 O1 0.19773 0.844524 0.87151  -0.608307752101
 O1 0.936681 0.736859 0.04393  -0.608307752101
 O2 0.803534 0.821661 0.07553  -0.495446323529
 O1 0.302296 0.825756 0.68747  -0.608307752101
 O1 0.395351 0.763088 0.7771  -0.608307752101
 O1 0.596166 0.499677 0.73187  -0.608307752101
 O1 0.58238 0.430137 0.62490  -0.608307752101
 O1 0.657601 0.544887 0.20392  -0.608307752101
 O1 0.6974 0.655448 0.12825  -0.608307752101
 O1 0.43614 0.762409 0.9565  -0.608307752101
 O2 0.301752 0.677802 0.92497  -0.495446323529
 O1 0.800552 0.672143 0.31250  -0.608307752101
 O1 0.89692 0.733711 0.22397  -0.608307752101
 O1 0.097441 0.999763 0.27057  -0.608307752101
 O1 0.084618 0.067997 0.37806  -0.608307752101
 O1 0.844425 0.451638 0.70658  -0.608307752101
 O1 0.801447 0.344519 0.62823  -0.608307752101
 O1 0.062723 0.236914 0.45613  -0.608307752101
 O2 0.197551 0.321417 0.42562  -0.495446323529
 O1 0.702038 0.326125 0.81593  -0.608307752101
 O1 0.606926 0.263447 0.7270  -0.608307752101
 O1 0.404723 0.0 0.77166  -0.608307752101
 O1 0.417481 0.930411 0.87854  -0.608307752101
