#======================================================================

# CRYSTAL DATA

#----------------------------------------------------------------------

data_VESTA_phase_1


_pd_phase_name                         MOF
_cell_length_a                         21.12000
_cell_length_b                         21.12400
_cell_length_c                         16.66200
_cell_angle_alpha                      90.05700
_cell_angle_beta                       90.09600
_cell_angle_gamma                      104.78400
_symmetry_space_group_name_H-M         "P 1"
_symmetry_Int_Tables_number            1

loop_
_symmetry_equiv_pos_as_xyz
   "x, y, z"

loop_
   _atom_site_label
   _atom_site_fract_x
   _atom_site_fract_y
   _atom_site_fract_z
 _atom_site_charge
 Zn1 0.06953 0.121967 0.90301  1.10079414634
 Zn1 0.069561 0.621537 0.9062  1.10079414634
 Zn1 0.569634 0.121888 0.90354  1.10079414634
 Zn1 0.571847 0.622076 0.90306  1.10079414634
 Zn1 0.186071 0.083637 0.94152  1.10079414634
 Zn1 0.186146 0.583088 0.94384  1.10079414634
 Zn1 0.687935 0.085272 0.94150  1.10079414634
 Zn1 0.687938 0.583441 0.94116  1.10079414634
 Zn1 0.430415 0.379332 0.40590  1.10079414634
 Zn1 0.430662 0.880195 0.40558  1.10079414634
 Zn1 0.930583 0.380123 0.40316  1.10079414634
 Zn1 0.930634 0.880312 0.40639  1.10079414634
 Zn1 0.311757 0.41654 0.44145  1.10079414634
 Zn1 0.313591 0.917597 0.44131  1.10079414634
 Zn1 0.813763 0.417791 0.44082  1.10079414634
 Zn1 0.814025 0.918198 0.44398  1.10079414634
 Zn1 0.378079 0.430521 0.59383  1.10079414634
 Zn1 0.378605 0.930647 0.59405  1.10079414634
 Zn1 0.878354 0.430706 0.59361  1.10079414634
 Zn1 0.878226 0.930349 0.59679  1.10079414634
 Zn1 0.416615 0.313804 0.55594  1.10079414634
 Zn1 0.416853 0.81393 0.55600  1.10079414634
 Zn1 0.916609 0.314157 0.55588  1.10079414634
 Zn1 0.91668 0.813705 0.55825  1.10079414634
 Zn1 0.119762 0.069548 0.0934  1.10079414634
 Zn1 0.122464 0.57201 0.09687  1.10079414634
 Zn1 0.620456 0.069571 0.09350  1.10079414634
 Zn1 0.621444 0.569648 0.09355  1.10079414634
 Zn1 0.080775 0.185911 0.05581  1.10079414634
 Zn1 0.08491 0.688762 0.05828  1.10079414634
 Zn1 0.582873 0.186461 0.05586  1.10079414634
 Zn1 0.583152 0.686086 0.05581  1.10079414634
 H1 0.257521 0.046712 0.70333  0.113207479675
 H1 0.256348 0.545292 0.70515  0.113207479675
 H1 0.756745 0.046097 0.70520  0.113207479675
 H1 0.756878 0.544969 0.702  0.113207479675
 H1 0.127962 0.423783 0.53313  0.113207479675
 H1 0.128482 0.922845 0.53385  0.113207479675
 H1 0.628005 0.422987 0.53165  0.113207479675
 H1 0.628478 0.923298 0.53417  0.113207479675
 H1 0.052726 0.043561 0.69668  0.113207479675
 H1 0.052014 0.543925 0.69654  0.113207479675
 H1 0.55248 0.044859 0.69567  0.113207479675
 H1 0.552529 0.543536 0.69510  0.113207479675
 H1 0.244056 0.455396 0.20567  0.113207479675
 H1 0.243172 0.956255 0.20471  0.113207479675
 H1 0.744208 0.455708 0.20307  0.113207479675
 H1 0.742862 0.95535 0.20592  0.113207479675
 H1 0.370519 0.078083 0.03285  0.113207479675
 H1 0.371663 0.577218 0.03402  0.113207479675
 H1 0.869878 0.075896 0.03273  0.113207479675
 H1 0.873034 0.579614 0.03433  0.113207479675
 H1 0.448051 0.455824 0.19534  0.113207479675
 H1 0.447495 0.957851 0.1950  0.113207479675
 H1 0.948684 0.457717 0.19561  0.113207479675
 H1 0.947127 0.956653 0.19596  0.113207479675
 H1 0.454515 0.243956 0.79387  0.113207479675
 H1 0.455683 0.7438 0.79350  0.113207479675
 H1 0.953827 0.244001 0.79302  0.113207479675
 H1 0.954371 0.742733 0.7961  0.113207479675
 H1 0.076286 0.371316 0.96527  0.113207479675
 H1 0.078402 0.872458 0.96480  0.113207479675
 H1 0.578033 0.371716 0.96478  0.113207479675
 H1 0.578949 0.871843 0.96445  0.113207479675
 H1 0.457665 0.448654 0.80248  0.113207479675
 H1 0.457962 0.948275 0.80251  0.113207479675
 H1 0.956033 0.448446 0.80302  0.113207479675
 H1 0.956168 0.947179 0.80281  0.113207479675
 H1 0.044379 0.2569 0.29326  0.113207479675
 H1 0.046157 0.758702 0.29600  0.113207479675
 H1 0.545009 0.256932 0.29355  0.113207479675
 H1 0.543649 0.756299 0.29294  0.113207479675
 H1 0.423296 0.129426 0.46534  0.113207479675
 H1 0.421139 0.629103 0.46443  0.113207479675
 H1 0.923364 0.130194 0.46637  0.113207479675
 H1 0.922219 0.629819 0.4646  0.113207479675
 H1 0.042898 0.052675 0.30394  0.113207479675
 H1 0.043895 0.554151 0.30321  0.113207479675
 H1 0.543864 0.052754 0.30341  0.113207479675
 H1 0.541521 0.55189 0.30282  0.113207479675
 C1 0.15623 0.051103 0.70631  -0.177982520325
 C1 0.155243 0.55037 0.70737  -0.177982520325
 C1 0.655766 0.051407 0.70671  -0.177982520325
 C1 0.655851 0.550095 0.70531  -0.177982520325
 C2 0.20919 0.029768 0.67625  0.0318241463415
 C2 0.208214 0.528933 0.67741  0.0318241463415
 C2 0.708631 0.029519 0.67749  0.0318241463415
 C2 0.708644 0.528512 0.6753  0.0318241463415
 C1 0.198756 0.485662 0.61204  -0.177982520325
 C1 0.199502 0.985918 0.61149  -0.177982520325
 C1 0.698938 0.485027 0.61031  -0.177982520325
 C1 0.699143 0.985611 0.61289  -0.177982520325
 C2 0.135711 0.460163 0.58082  0.0318241463415
 C2 0.13631 0.959595 0.58113  0.0318241463415
 C2 0.635855 0.459444 0.57927  0.0318241463415
 C2 0.636174 0.959981 0.58152  0.0318241463415
 C1 0.08275 0.480344 0.61195  -0.177982520325
 C1 0.083301 0.979474 0.61267  -0.177982520325
 C1 0.582951 0.479691 0.61056  -0.177982520325
 C1 0.583171 0.980467 0.61206  -0.177982520325
 C2 0.093819 0.027314 0.67275  0.0318241463415
 C2 0.09308 0.527521 0.67280  0.0318241463415
 C2 0.593538 0.028198 0.67235  0.0318241463415
 C2 0.593514 0.527067 0.67123  0.0318241463415
 C3 0.161532 0.090927 0.78141  0.683557479675
 C3 0.160214 0.589352 0.78319  0.683557479675
 C3 0.661532 0.091421 0.7816  0.683557479675
 C3 0.661608 0.589652 0.78059  0.683557479675
 C3 0.254158 0.463364 0.57632  0.683557479675
 C3 0.255085 0.964091 0.57565  0.683557479675
 C3 0.754573 0.46308 0.57501  0.683557479675
 C3 0.754787 0.963293 0.57821  0.683557479675
 C3 0.014178 0.447378 0.58727  0.683557479675
 C3 0.014606 0.945892 0.58911  0.683557479675
 C3 0.514294 0.446797 0.58597  0.683557479675
 C3 0.514631 0.947467 0.58696  0.683557479675
 C1 0.344942 0.449754 0.20681  -0.177982520325
 C1 0.344302 0.951263 0.20632  -0.177982520325
 C1 0.845332 0.450784 0.20556  -0.177982520325
 C1 0.843982 0.950284 0.20743  -0.177982520325
 C2 0.29201 0.471759 0.17775  0.0318241463415
 C2 0.291154 0.972741 0.17688  0.0318241463415
 C2 0.792439 0.47255 0.17597  0.0318241463415
 C2 0.790768 0.971575 0.17783  0.0318241463415
 C1 0.300239 0.016139 0.11185  -0.177982520325
 C1 0.301246 0.515443 0.11304  -0.177982520325
 C1 0.799744 0.014507 0.11231  -0.177982520325
 C1 0.802093 0.516632 0.11167  -0.177982520325
 C2 0.363072 0.041705 0.08041  0.0318241463415
 C2 0.364092 0.540698 0.08143  0.0318241463415
 C2 0.86252 0.039785 0.08058  0.0318241463415
 C2 0.865195 0.542707 0.08129  0.0318241463415
 C1 0.416215 0.021463 0.11102  -0.177982520325
 C1 0.417145 0.520044 0.11173  -0.177982520325
 C1 0.915713 0.019705 0.11129  -0.177982520325
 C1 0.918109 0.522304 0.11230  -0.177982520325
 C2 0.406976 0.472596 0.17215  0.0318241463415
 C2 0.406277 0.974254 0.17167  0.0318241463415
 C2 0.90764 0.474296 0.17200  0.0318241463415
 C2 0.905882 0.97293 0.17241  0.0318241463415
 C3 0.339584 0.409928 0.28181  0.683557479675
 C3 0.339491 0.912044 0.28172  0.683557479675
 C3 0.83995 0.410867 0.28038  0.683557479675
 C3 0.839616 0.911631 0.28326  0.683557479675
 C3 0.244527 0.038118 0.07642  0.683557479675
 C3 0.245582 0.53793 0.07830  0.683557479675
 C3 0.744229 0.036825 0.0768  0.683557479675
 C3 0.746569 0.538678 0.07600  0.683557479675
 C3 0.484564 0.054268 0.08582  0.683557479675
 C3 0.485611 0.552695 0.08632  0.683557479675
 C3 0.984 0.052555 0.08588  0.683557479675
 C3 0.986701 0.555632 0.0886  0.683557479675
 C1 0.450231 0.345251 0.79183  -0.177982520325
 C1 0.45095 0.844987 0.79164  -0.177982520325
 C1 0.949162 0.345182 0.79162  -0.177982520325
 C1 0.949343 0.843815 0.7931  -0.177982520325
 C2 0.471452 0.292075 0.8214  0.0318241463415
 C2 0.472489 0.791926 0.82109  0.0318241463415
 C2 0.970529 0.292008 0.82094  0.0318241463415
 C2 0.971187 0.791108 0.82309  0.0318241463415
 C1 0.014021 0.301077 0.88604  -0.177982520325
 C1 0.015428 0.801121 0.88750  -0.177982520325
 C1 0.515194 0.301277 0.88628  -0.177982520325
 C1 0.516294 0.80124 0.88591  -0.177982520325
 C2 0.039841 0.363935 0.91763  0.0318241463415
 C2 0.041412 0.864364 0.91777  0.0318241463415
 C2 0.54139 0.364237 0.9173  0.0318241463415
 C2 0.542295 0.864243 0.91703  0.0318241463415
 C1 0.019803 0.417192 0.88704  -0.177982520325
 C1 0.020853 0.917085 0.88656  -0.177982520325
 C1 0.521507 0.417457 0.88642  -0.177982520325
 C1 0.522141 0.917345 0.88619  -0.177982520325
 C2 0.473862 0.407402 0.8260  0.0318241463415
 C2 0.474416 0.907126 0.8259  0.0318241463415
 C2 0.972416 0.407229 0.82637  0.0318241463415
 C2 0.972825 0.906284 0.82663  0.0318241463415
 C3 0.410632 0.340193 0.71655  0.683557479675
 C3 0.411135 0.839958 0.71652  0.683557479675
 C3 0.909525 0.340218 0.71639  0.683557479675
 C3 0.909256 0.838155 0.71818  0.683557479675
 C3 0.035734 0.245222 0.92132  0.683557479675
 C3 0.037977 0.74591 0.92318  0.683557479675
 C3 0.536994 0.245436 0.92145  0.683557479675
 C3 0.538196 0.745476 0.92126  0.683557479675
 C3 0.052848 0.485624 0.91244  0.683557479675
 C3 0.05401 0.98577 0.91049  0.683557479675
 C3 0.554924 0.485983 0.91085  0.683557479675
 C3 0.55512 0.985977 0.9107  0.683557479675
 C1 0.049325 0.155785 0.2921  -0.177982520325
 C1 0.050904 0.657528 0.2933  -0.177982520325
 C1 0.550192 0.155882 0.29204  -0.177982520325
 C1 0.548303 0.655098 0.29139  -0.177982520325
 C2 0.028017 0.209028 0.32141  0.0318241463415
 C2 0.029227 0.710434 0.32300  0.0318241463415
 C2 0.528614 0.208962 0.32144  0.0318241463415
 C2 0.526882 0.7083 0.32067  0.0318241463415
 C1 0.485258 0.199837 0.3865  -0.177982520325
 C1 0.483369 0.699288 0.38555  -0.177982520325
 C1 0.984953 0.200157 0.38673  -0.177982520325
 C1 0.985155 0.700767 0.3873  -0.177982520325
 C2 0.45975 0.136966 0.41789  0.0318241463415
 C2 0.457544 0.63646 0.41692  0.0318241463415
 C2 0.95954 0.137451 0.4186  0.0318241463415
 C2 0.959066 0.637633 0.4176  0.0318241463415
 C1 0.48012 0.083899 0.38733  -0.177982520325
 C1 0.477675 0.583245 0.38643  -0.177982520325
 C1 0.979661 0.084217 0.38820  -0.177982520325
 C1 0.979389 0.584682 0.38664  -0.177982520325
 C2 0.026568 0.093951 0.32723  0.0318241463415
 C2 0.027327 0.595176 0.32684  0.0318241463415
 C2 0.527368 0.093912 0.32677  0.0318241463415
 C2 0.525066 0.593126 0.32601  0.0318241463415
 C3 0.088175 0.160221 0.21648  0.683557479675
 C3 0.091109 0.662989 0.21870  0.683557479675
 C3 0.589295 0.1606 0.21655  0.683557479675
 C3 0.588067 0.659924 0.21641  0.683557479675
 C3 0.463079 0.255443 0.4218  0.683557479675
 C3 0.46172 0.755105 0.4211  0.683557479675
 C3 0.962995 0.255872 0.42199  0.683557479675
 C3 0.962994 0.756215 0.42309  0.683557479675
 C3 0.447268 0.015523 0.41236  0.683557479675
 C3 0.444934 0.514901 0.41187  0.683557479675
 C3 0.946994 0.015961 0.41391  0.683557479675
 C3 0.946128 0.51611 0.41076  0.683557479675
 O1 0.115571 0.117872 0.79710  -0.597405853659
 O1 0.114271 0.616272 0.79918  -0.597405853659
 O1 0.616033 0.118838 0.79772  -0.597405853659
 O1 0.616231 0.617338 0.7963  -0.597405853659
 O1 0.21012 0.091398 0.82823  -0.597405853659
 O1 0.20863 0.589164 0.82996  -0.597405853659
 O1 0.710443 0.091745 0.82797  -0.597405853659
 O1 0.710089 0.58932 0.82725  -0.597405853659
 O1 0.30836 0.474908 0.61463  -0.597405853659
 O1 0.308862 0.974853 0.61478  -0.597405853659
 O1 0.80843 0.474684 0.6140  -0.597405853659
 O1 0.808527 0.974639 0.61755  -0.597405853659
 O1 0.242637 0.433597 0.50880  -0.597405853659
 O1 0.244215 0.935628 0.50735  -0.597405853659
 O1 0.743776 0.433747 0.50721  -0.597405853659
 O1 0.744053 0.933856 0.51049  -0.597405853659
 O1 0.471437 0.479104 0.59734  -0.597405853659
 O1 0.471766 0.97993 0.59747  -0.597405853659
 O1 0.971446 0.48009 0.5971  -0.597405853659
 O1 0.971629 0.978047 0.60072  -0.597405853659
 O1 0.003358 0.388498 0.56215  -0.597405853659
 O1 0.003981 0.887276 0.56311  -0.597405853659
 O1 0.503527 0.38837 0.55921  -0.597405853659
 O1 0.503934 0.888886 0.56073  -0.597405853659
 O1 0.385833 0.383664 0.29845  -0.597405853659
 O1 0.38602 0.88616 0.29841  -0.597405853659
 O1 0.885661 0.38355 0.29607  -0.597405853659
 O1 0.886094 0.88546 0.29923  -0.597405853659
 O1 0.290196 0.408662 0.32750  -0.597405853659
 O1 0.290453 0.911075 0.32782  -0.597405853659
 O1 0.791459 0.410857 0.32694  -0.597405853659
 O1 0.79126 0.911379 0.3301  -0.597405853659
 O1 0.190498 0.02652 0.11482  -0.597405853659
 O1 0.192152 0.527605 0.11788  -0.597405853659
 O1 0.690012 0.02509 0.11483  -0.597405853659
 O1 0.692588 0.527347 0.11450  -0.597405853659
 O1 0.255649 0.067595 0.0088  -0.597405853659
 O1 0.256042 0.566545 0.01016  -0.597405853659
 O1 0.755866 0.066995 0.0097  -0.597405853659
 O1 0.757787 0.5678 0.00821  -0.597405853659
 O1 0.026971 0.02019 0.09651  -0.597405853659
 O1 0.029585 0.523293 0.10019  -0.597405853659
 O1 0.527407 0.021838 0.09693  -0.597405853659
 O1 0.528388 0.520061 0.09670  -0.597405853659
 O1 0.495206 0.112619 0.05916  -0.597405853659
 O1 0.496392 0.611203 0.06011  -0.597405853659
 O1 0.994408 0.111013 0.05955  -0.597405853659
 O1 0.997418 0.614209 0.062  -0.597405853659
 O1 0.383414 0.385952 0.70092  -0.597405853659
 O1 0.384014 0.885818 0.70094  -0.597405853659
 O1 0.883063 0.386517 0.70066  -0.597405853659
 O1 0.881975 0.883856 0.70240  -0.597405853659
 O1 0.410657 0.291725 0.66977  -0.597405853659
 O1 0.410868 0.791451 0.66971  -0.597405853659
 O1 0.908563 0.291472 0.66971  -0.597405853659
 O1 0.908896 0.789549 0.67147  -0.597405853659
 O1 0.025085 0.191604 0.88190  -0.597405853659
 O1 0.025394 0.691386 0.88556  -0.597405853659
 O1 0.525372 0.191579 0.88239  -0.597405853659
 O1 0.527618 0.691858 0.88188  -0.597405853659
 O1 0.064012 0.255725 0.98979  -0.597405853659
 O1 0.068885 0.757848 0.9899  -0.597405853659
 O1 0.566368 0.256153 0.98924  -0.597405853659
 O1 0.56659 0.756017 0.98968  -0.597405853659
 O1 0.021653 0.02858 0.89907  -0.597405853659
 O1 0.020202 0.528472 0.90279  -0.597405853659
 O1 0.522328 0.028529 0.89946  -0.597405853659
 O1 0.522756 0.528992 0.89953  -0.597405853659
 O1 0.111604 0.496265 0.93793  -0.597405853659
 O1 0.112603 0.996561 0.93674  -0.597405853659
 O1 0.613484 0.496548 0.93720  -0.597405853659
 O1 0.613654 0.99712 0.93708  -0.597405853659
 O1 0.114403 0.113786 0.20067  -0.597405853659
 O1 0.118489 0.6173 0.20329  -0.597405853659
 O1 0.616226 0.114652 0.20074  -0.597405853659
 O1 0.614602 0.613661 0.20081  -0.597405853659
 O1 0.088516 0.208636 0.16963  -0.597405853659
 O1 0.091467 0.711502 0.17194  -0.597405853659
 O1 0.58904 0.208863 0.16969  -0.597405853659
 O1 0.588893 0.708577 0.16976  -0.597405853659
 O1 0.474572 0.30951 0.38355  -0.597405853659
 O1 0.472482 0.808843 0.38221  -0.597405853659
 O1 0.974749 0.309948 0.38363  -0.597405853659
 O1 0.974903 0.810554 0.38528  -0.597405853659
 O1 0.433451 0.244242 0.4893  -0.597405853659
 O1 0.433354 0.744343 0.48944  -0.597405853659
 O1 0.933338 0.244639 0.4894  -0.597405853659
 O1 0.933048 0.744562 0.49027  -0.597405853659
 O1 0.478055 0.472451 0.4025  -0.597405853659
 O1 0.480102 0.972807 0.40278  -0.597405853659
 O1 0.978477 0.473209 0.39950  -0.597405853659
 O1 0.979557 0.973161 0.40334  -0.597405853659
 O1 0.38843 0.004728 0.43734  -0.597405853659
 O1 0.386125 0.50388 0.43707  -0.597405853659
 O1 0.888585 0.005361 0.44041  -0.597405853659
 O1 0.887603 0.505418 0.43678  -0.597405853659
 O2 0.131234 0.132562 0.99891  -0.583689853659
 O2 0.132984 0.633439 0.  -0.583689853659
 O2 0.632518 0.132822 0.99898  -0.583689853659
 O2 0.633568 0.632736 0.99896  -0.583689853659
 O2 0.366463 0.36765 0.49935  -0.583689853659
 O2 0.367011 0.867982 0.49942  -0.583689853659
 O2 0.867934 0.368697 0.4980  -0.583689853659
 O2 0.86782 0.868465 0.50096  -0.583689853659
