#======================================================================

# CRYSTAL DATA

#----------------------------------------------------------------------

data_VESTA_phase_1


_pd_phase_name                         MOF
_cell_length_a                         10.88800
_cell_length_b                         22.55300
_cell_length_c                         14.27200
_cell_angle_alpha                      89.88400
_cell_angle_beta                       90.01100
_cell_angle_gamma                      105.17800
_symmetry_space_group_name_H-M         "P 1"
_symmetry_Int_Tables_number            1

loop_
_symmetry_equiv_pos_as_xyz
   "x, y, z"

loop_
   _atom_site_label
   _atom_site_fract_x
   _atom_site_fract_y
   _atom_site_fract_z
 _atom_site_charge
 Li1 0.403751 0.003462 0.56573  0.867425714286
 Li1 0.403759 0.503463 0.56573  0.867425714286
 Li1 0.903745 0.003462 0.56573  0.867425714286
 Li1 0.903752 0.503464 0.56573  0.867425714286
 Li1 0.346394 0.24759 0.06630  0.867425714286
 Li1 0.346406 0.747594 0.06630  0.867425714286
 Li1 0.846388 0.247591 0.06630  0.867425714286
 Li1 0.846399 0.747594 0.06630  0.867425714286
 Li1 0.096272 0.496541 0.43429  0.867425714286
 Li1 0.096281 0.996543 0.43429  0.867425714286
 Li1 0.596265 0.496541 0.43429  0.867425714286
 Li1 0.596274 0.996543 0.43429  0.867425714286
 Li1 0.153614 0.252408 0.93373  0.867425714286
 Li1 0.153624 0.75241 0.93373  0.867425714286
 Li1 0.653607 0.252408 0.93373  0.867425714286
 Li1 0.653618 0.75241 0.93373  0.867425714286
 H1 0.485273 0.365349 0.38007  0.0956657142857
 H1 0.485284 0.865352 0.38007  0.0956657142857
 H1 0.985265 0.365348 0.38008  0.0956657142857
 H1 0.985275 0.865351 0.38008  0.0956657142857
 H1 0.202754 0.338681 0.10599  0.0956657142857
 H1 0.202768 0.838687 0.10599  0.0956657142857
 H1 0.70275 0.338683 0.10599  0.0956657142857
 H1 0.702764 0.838688 0.10599  0.0956657142857
 H1 0.177532 0.411589 0.23299  0.0956657142857
 H1 0.177544 0.911593 0.23299  0.0956657142857
 H1 0.677528 0.41159 0.23299  0.0956657142857
 H1 0.67754 0.911594 0.2329  0.0956657142857
 H1 0.491111 0.290462 0.25143  0.0956657142857
 H1 0.491125 0.790467 0.25143  0.0956657142857
 H1 0.991104 0.290461 0.25143  0.0956657142857
 H1 0.991116 0.790465 0.25143  0.0956657142857
 H1 0.26443 0.38371 0.87948  0.0956657142857
 H1 0.264443 0.883714 0.87948  0.0956657142857
 H1 0.764426 0.383712 0.8794  0.0956657142857
 H1 0.764435 0.883713 0.87948  0.0956657142857
 H1 0.04617 0.412973 0.60468  0.0956657142857
 H1 0.046186 0.912978 0.60469  0.0956657142857
 H1 0.546168 0.412975 0.60469  0.0956657142857
 H1 0.546178 0.912977 0.6046  0.0956657142857
 H1 0.071198 0.338598 0.73001  0.0956657142857
 H1 0.071212 0.838602 0.73001  0.0956657142857
 H1 0.571195 0.3386 0.73001  0.0956657142857
 H1 0.571204 0.838601 0.73001  0.0956657142857
 H1 0.258315 0.459879 0.752  0.0956657142857
 H1 0.258329 0.959883 0.75240  0.0956657142857
 H1 0.758312 0.459881 0.75240  0.0956657142857
 H1 0.758321 0.959883 0.75240  0.0956657142857
 H1 0.014743 0.13465 0.61995  0.0956657142857
 H1 0.014751 0.634652 0.61995  0.0956657142857
 H1 0.514732 0.134648 0.61995  0.0956657142857
 H1 0.514739 0.63465 0.61995  0.0956657142857
 H1 0.297241 0.161311 0.8940  0.0956657142857
 H1 0.297249 0.661313 0.89405  0.0956657142857
 H1 0.797239 0.161313 0.89404  0.0956657142857
 H1 0.797249 0.661314 0.89404  0.0956657142857
 H1 0.322473 0.088407 0.76705  0.0956657142857
 H1 0.32248 0.588408 0.76705  0.0956657142857
 H1 0.82247 0.088409 0.76704  0.0956657142857
 H1 0.822479 0.588411 0.76704  0.0956657142857
 H1 0.008893 0.209533 0.748  0.0956657142857
 H1 0.008903 0.709535 0.74860  0.0956657142857
 H1 0.508883 0.209531 0.74860  0.0956657142857
 H1 0.508891 0.709532 0.74860  0.0956657142857
 H1 0.235577 0.116288 0.12054  0.0956657142857
 H1 0.235588 0.61629 0.12054  0.0956657142857
 H1 0.735578 0.116291 0.12054  0.0956657142857
 H1 0.735586 0.616292 0.12054  0.0956657142857
 H1 0.453841 0.087028 0.39534  0.0956657142857
 H1 0.453854 0.587031 0.39534  0.0956657142857
 H1 0.953844 0.087033 0.39535  0.0956657142857
 H1 0.953853 0.587034 0.39535  0.0956657142857
 H1 0.428809 0.1614 0.27002  0.0956657142857
 H1 0.428821 0.661403 0.27002  0.0956657142857
 H1 0.928812 0.161405 0.27002  0.0956657142857
 H1 0.928819 0.661406 0.27002  0.0956657142857
 H1 0.241695 0.040121 0.24763  0.0956657142857
 H1 0.241708 0.540124 0.24763  0.0956657142857
 H1 0.741696 0.040125 0.24763  0.0956657142857
 H1 0.741705 0.540126 0.24763  0.0956657142857
 C1 0.313932 0.436614 0.39519  0.765030714286
 C1 0.313943 0.936617 0.39519  0.765030714286
 C1 0.813926 0.436615 0.39519  0.765030714286
 C1 0.813936 0.936617 0.39519  0.765030714286
 C2 0.329016 0.393796 0.31691  -0.0380192857143
 C2 0.329027 0.8938 0.31691  -0.0380192857143
 C2 0.82901 0.393796 0.31691  -0.0380192857143
 C2 0.829021 0.8938 0.31691  -0.0380192857143
 C3 0.419255 0.359677 0.32141  -0.162049285714
 C3 0.419267 0.859681 0.32141  -0.162049285714
 C3 0.919247 0.359676 0.32141  -0.162049285714
 C3 0.919259 0.85968 0.32141  -0.162049285714
 C4 0.262909 0.345415 0.16836  0.193725714286
 C4 0.262922 0.84542 0.1683  0.193725714286
 C4 0.762904 0.345415 0.16836  0.193725714286
 C4 0.762918 0.84542 0.1683  0.193725714286
 C3 0.249647 0.386194 0.23823  -0.162049285714
 C3 0.249659 0.886198 0.23823  -0.162049285714
 C3 0.749641 0.386194 0.23823  -0.162049285714
 C3 0.749654 0.886199 0.23823  -0.162049285714
 C4 0.423603 0.318677 0.24933  0.193725714286
 C4 0.423616 0.818681 0.24933  0.193725714286
 C4 0.923596 0.318676 0.24933  0.193725714286
 C4 0.923608 0.818681 0.24933  0.193725714286
 C1 0.435463 0.312065 0.89226  0.765030714286
 C1 0.435475 0.812068 0.89226  0.765030714286
 C1 0.935456 0.312065 0.89226  0.765030714286
 C1 0.935468 0.812068 0.89226  0.765030714286
 C2 0.42018 0.355714 0.81495  -0.0380192857143
 C2 0.420194 0.855718 0.81495  -0.0380192857143
 C2 0.920174 0.355714 0.81495  -0.0380192857143
 C2 0.920187 0.855718 0.81495  -0.0380192857143
 C3 0.330208 0.389918 0.82061  -0.162049285714
 C3 0.330219 0.889921 0.82061  -0.162049285714
 C3 0.830203 0.389919 0.82061  -0.162049285714
 C3 0.830211 0.889921 0.82061  -0.162049285714
 C4 0.486205 0.405677 0.66719  0.193725714286
 C4 0.486215 0.905679 0.66719  0.193725714286
 C4 0.986196 0.405676 0.66719  0.193725714286
 C4 0.986209 0.90568 0.66719  0.193725714286
 C3 0.999363 0.364086 0.73609  -0.162049285714
 C3 0.999375 0.864089 0.736  -0.162049285714
 C3 0.49936 0.364087 0.73610  -0.162049285714
 C3 0.499367 0.864088 0.73609  -0.162049285714
 C4 0.325834 0.431693 0.74940  0.193725714286
 C4 0.325846 0.931697 0.74940  0.193725714286
 C4 0.825829 0.431695 0.74940  0.193725714286
 C4 0.825839 0.931697 0.74940  0.193725714286
 C1 0.186088 0.063385 0.60484  0.765030714286
 C1 0.186095 0.563387 0.60484  0.765030714286
 C1 0.686081 0.063385 0.60484  0.765030714286
 C1 0.686088 0.563387 0.60484  0.765030714286
 C2 0.170995 0.106201 0.6831  -0.0380192857143
 C2 0.171003 0.606202 0.68312  -0.0380192857143
 C2 0.670988 0.1062 0.68312  -0.0380192857143
 C2 0.670995 0.606201 0.68312  -0.0380192857143
 C3 0.080759 0.140321 0.67861  -0.162049285714
 C3 0.080767 0.640323 0.67861  -0.162049285714
 C3 0.580751 0.14032 0.6786  -0.162049285714
 C3 0.580759 0.640323 0.67862  -0.162049285714
 C4 0.237092 0.15458 0.8316  0.193725714286
 C4 0.2371 0.654581 0.83168  0.193725714286
 C4 0.737088 0.15458 0.8316  0.193725714286
 C4 0.737097 0.654582 0.8316  0.193725714286
 C3 0.250361 0.113803 0.76180  -0.162049285714
 C3 0.250369 0.613805 0.76180  -0.162049285714
 C3 0.750357 0.113804 0.76180  -0.162049285714
 C3 0.750367 0.613807 0.76180  -0.162049285714
 C4 0.076403 0.181319 0.75070  0.193725714286
 C4 0.076412 0.681321 0.75070  0.193725714286
 C4 0.576395 0.181318 0.75070  0.193725714286
 C4 0.576403 0.681319 0.75070  0.193725714286
 C1 0.064547 0.187934 0.10776  0.765030714286
 C1 0.06456 0.687938 0.10776  0.765030714286
 C1 0.564541 0.187934 0.10776  0.765030714286
 C1 0.564554 0.687938 0.10776  0.765030714286
 C2 0.079829 0.144286 0.18507  -0.0380192857143
 C2 0.079845 0.644292 0.1850  -0.0380192857143
 C2 0.579824 0.144286 0.18507  -0.0380192857143
 C2 0.579839 0.644292 0.1850  -0.0380192857143
 C3 0.169804 0.110083 0.17942  -0.162049285714
 C3 0.16981 0.610083 0.17941  -0.162049285714
 C3 0.669799 0.110083 0.17942  -0.162049285714
 C3 0.669804 0.610083 0.17941  -0.162049285714
 C4 0.013816 0.094329 0.33284  0.193725714286
 C4 0.013823 0.594329 0.33284  0.193725714286
 C4 0.513803 0.094325 0.33284  0.193725714286
 C4 0.513813 0.594327 0.33284  0.193725714286
 C3 0.500647 0.135914 0.26393  -0.162049285714
 C3 0.500653 0.635914 0.26393  -0.162049285714
 C3 0.0 0.135918 0.26393  -0.162049285714
 C3 0.0 0.635917 0.26393  -0.162049285714
 C4 0.174179 0.068308 0.25063  0.193725714286
 C4 0.174188 0.56831 0.25063  0.193725714286
 C4 0.674175 0.068309 0.25063  0.193725714286
 C4 0.674183 0.568311 0.25063  0.193725714286
 N1 0.347556 0.311193 0.17335  -0.492359285714
 N1 0.34757 0.811199 0.17334  -0.492359285714
 N1 0.847551 0.311194 0.1733  -0.492359285714
 N1 0.847564 0.811198 0.17334  -0.492359285714
 N1 0.401737 0.43994 0.67328  -0.492359285714
 N1 0.401752 0.939945 0.67328  -0.492359285714
 N1 0.901731 0.43994 0.67328  -0.492359285714
 N1 0.901746 0.939945 0.67328  -0.492359285714
 N1 0.152442 0.1888 0.82669  -0.492359285714
 N1 0.152451 0.688801 0.82669  -0.492359285714
 N1 0.652435 0.188799 0.82669  -0.492359285714
 N1 0.652442 0.6888 0.82669  -0.492359285714
 N1 0.098277 0.060062 0.32675  -0.492359285714
 N1 0.098294 0.560068 0.32675  -0.492359285714
 N1 0.598272 0.060063 0.32675  -0.492359285714
 N1 0.598288 0.560068 0.32675  -0.492359285714
 O1 0.409726 0.45762 0.44834  -0.807169285714
 O1 0.409735 0.957623 0.44834  -0.807169285714
 O1 0.909719 0.45762 0.44834  -0.807169285714
 O1 0.909729 0.957623 0.44834  -0.807169285714
 O2 0.206924 0.447952 0.40241  -0.740924285714
 O2 0.206933 0.947954 0.40241  -0.740924285714
 O2 0.706917 0.447952 0.40241  -0.740924285714
 O2 0.706927 0.947954 0.40241  -0.740924285714
 O1 0.340871 0.291776 0.94692  -0.807169285714
 O1 0.340881 0.791778 0.94692  -0.807169285714
 O1 0.840864 0.291776 0.94692  -0.807169285714
 O1 0.840874 0.791778 0.94692  -0.807169285714
 O2 0.041506 0.299471 0.89714  -0.740924285714
 O2 0.041516 0.799472 0.89714  -0.740924285714
 O2 0.541499 0.299471 0.89714  -0.740924285714
 O2 0.54151 0.799472 0.89714  -0.740924285714
 O1 0.090301 0.042383 0.55168  -0.807169285714
 O1 0.090309 0.542385 0.5516  -0.807169285714
 O1 0.590294 0.042383 0.5516  -0.807169285714
 O1 0.590302 0.542385 0.5516  -0.807169285714
 O2 0.293098 0.05205 0.59762  -0.740924285714
 O2 0.293106 0.552052 0.59762  -0.740924285714
 O2 0.793092 0.05205 0.59762  -0.740924285714
 O2 0.7931 0.552052 0.59762  -0.740924285714
 O1 0.159141 0.208223 0.05310  -0.807169285714
 O1 0.159152 0.708224 0.05310  -0.807169285714
 O1 0.659135 0.208223 0.05310  -0.807169285714
 O1 0.659145 0.708224 0.05310  -0.807169285714
 O2 0.458504 0.200528 0.10288  -0.740924285714
 O2 0.458513 0.700529 0.10288  -0.740924285714
 O2 0.958498 0.200529 0.10288  -0.740924285714
 O2 0.958507 0.700529 0.10288  -0.740924285714
