#======================================================================

# CRYSTAL DATA

#----------------------------------------------------------------------

data_VESTA_phase_1


_pd_phase_name                         MOF
_cell_length_a                         14.75000
_cell_length_b                         18.17100
_cell_length_c                         25.08600
_cell_angle_alpha                      90.11000
_cell_angle_beta                       90.02800
_cell_angle_gamma                      90.42300
_symmetry_space_group_name_H-M         "P 1"
_symmetry_Int_Tables_number            1

loop_
_symmetry_equiv_pos_as_xyz
   "x, y, z"

loop_
   _atom_site_label
   _atom_site_fract_x
   _atom_site_fract_y
   _atom_site_fract_z
 _atom_site_charge
 Zn1 0.53837 0.940515 0.64830  0.97157
 Zn1 0.461007 0.555899 0.6502  0.97157
 Zn1 0.038937 0.556493 0.14953  0.97157
 Zn1 0.968753 0.940385 0.14827  0.97157
 Zn2 0.499916 0.747172 0.64777  1.2111
 Zn2 0.003714 0.74699 0.14794  1.2111
 Zn1 0.961234 0.440368 0.85149  0.97157
 Zn1 0.03116 0.056457 0.85166  0.97157
 Zn1 0.461598 0.056285 0.35162  0.97157
 Zn1 0.538756 0.440819 0.35158  0.97157
 Zn2 0.99634 0.249727 0.85219  1.2111
 Zn2 0.499964 0.249734 0.3523  1.2111
 H1 0.46821 0.05441 0.57433  0.101165
 H1 0.439822 0.190055 0.57240  0.101165
 H1 0.541397 0.20007 0.73405  0.101165
 H1 0.567687 0.064766 0.72847  0.101165
 H1 0.605836 0.510014 0.5033  0.101165
 H1 0.697448 0.513287 0.42135  0.101165
 H1 0.756684 0.743099 0.44897  0.101165
 H1 0.66439 0.738538 0.53179  0.101165
 H1 0.822577 0.514326 0.38147  0.101165
 H1 0.768997 0.746139 0.36291  0.101165
 H1 0.838092 0.929603 0.66155  0.101165
 H1 0.996321 0.883547 0.66283  0.101165
 H1 0.894499 0.660793 0.65274  0.101165
 H1 0.736621 0.708021 0.65437  0.101165
 H1 0.913167 0.516777 0.29861  0.101165
 H1 0.865678 0.748023 0.28178  0.101165
 H1 0.525909 0.438545 0.57818  0.101165
 H1 0.540105 0.301369 0.57572  0.101165
 H1 0.407786 0.295484 0.72946  0.101165
 H1 0.396018 0.432323 0.72435  0.101165
 H1 0.389776 0.979297 0.50452  0.101165
 H1 0.294926 0.976848 0.42312  0.101165
 H1 0.283473 0.739905 0.43094  0.101165
 H1 0.382713 0.743536 0.51179  0.101165
 H1 0.154281 0.955888 0.39194  0.101165
 H1 0.287211 0.758493 0.33879  0.101165
 H1 0.175783 0.589875 0.69315  0.101165
 H1 0.020439 0.640303 0.70045  0.101165
 H1 0.106611 0.832926 0.61321  0.101165
 H1 0.262508 0.782598 0.60833  0.101165
 H1 0.068249 0.959765 0.30663  0.101165
 H1 0.199201 0.762761 0.25415  0.101165
 H1 0.971126 0.438488 0.07794  0.101165
 H1 0.958855 0.300962 0.07547  0.101165
 H1 0.097925 0.297589 0.22725  0.101165
 H1 0.107169 0.434706 0.22229  0.101165
 H1 0.111401 0.979661 0.00268  0.101165
 H1 0.204101 0.978396 0.9203  0.101165
 H1 0.217573 0.741738 0.928  0.101165
 H1 0.120695 0.744087 0.01055  0.101165
 H1 0.347489 0.957588 0.89018  0.101165
 H1 0.209694 0.761435 0.83571  0.101165
 H1 0.327331 0.586728 0.19166  0.101165
 H1 0.483848 0.636727 0.19848  0.101165
 H1 0.396974 0.835696 0.12063  0.101165
 H1 0.240245 0.785131 0.11555  0.101165
 H1 0.435951 0.960716 0.80566  0.101165
 H1 0.300011 0.76496 0.75184  0.101165
 H1 0.03371 0.055692 0.07244  0.101165
 H1 0.059025 0.19208 0.0700  0.101165
 H1 0.969451 0.19908 0.23413  0.101165
 H1 0.946342 0.063042 0.22908  0.101165
 H1 0.896384 0.512492 0.00147  0.101165
 H1 0.803028 0.516105 0.9199  0.101165
 H1 0.744759 0.744809 0.94989  0.101165
 H1 0.838256 0.73978 0.0323  0.101165
 H1 0.674157 0.516757 0.88314  0.101165
 H1 0.732704 0.748106 0.86283  0.101165
 H1 0.668171 0.929869 0.16854  0.101165
 H1 0.509766 0.882824 0.17061  0.101165
 H1 0.608631 0.661675 0.15033  0.101165
 H1 0.766995 0.70957 0.15150  0.101165
 H1 0.582175 0.518467 0.80062  0.101165
 H1 0.634802 0.749303 0.78203  0.101165
 H1 0.030509 0.558812 0.92189  0.101165
 H1 0.042518 0.696343 0.92396  0.101165
 H1 0.900898 0.698867 0.77  0.101165
 H1 0.89201 0.561757 0.77833  0.101165
 H1 0.88875 0.017138 0.99744  0.101165
 H1 0.79617 0.018557 0.07980  0.101165
 H1 0.783155 0.255238 0.07143  0.101165
 H1 0.879907 0.252719 0.98953  0.101165
 H1 0.653181 0.039252 0.10995  0.101165
 H1 0.790323 0.235734 0.16437  0.101165
 H1 0.672506 0.410582 0.81036  0.101165
 H1 0.51601 0.360618 0.80326  0.101165
 H1 0.602696 0.161145 0.8805  0.101165
 H1 0.759499 0.211544 0.88566  0.101165
 H1 0.564537 0.036094 0.19439  0.101165
 H1 0.69983 0.232162 0.24816  0.101165
 H1 0.967076 0.941019 0.92758  0.101165
 H1 0.94179 0.804626 0.92992  0.101165
 H1 0.029046 0.798013 0.76538  0.101165
 H1 0.052237 0.934053 0.77051  0.101165
 H1 0.105372 0.484833 0.99817  0.101165
 H1 0.197639 0.481747 0.08003  0.101165
 H1 0.256389 0.25289 0.0510  0.101165
 H1 0.16375 0.257335 0.96828  0.101165
 H1 0.325064 0.48147 0.11820  0.101165
 H1 0.267549 0.249839 0.1379  0.101165
 H1 0.331946 0.067091 0.83190  0.101165
 H1 0.490308 0.114282 0.83037  0.101165
 H1 0.39102 0.335247 0.85096  0.101165
 H1 0.232721 0.28723 0.84923  0.101165
 H1 0.415783 0.479908 0.20119  0.101165
 H1 0.364419 0.248811 0.21914  0.101165
 H1 0.53172 0.942867 0.42607  0.101165
 H1 0.559939 0.807225 0.42858  0.101165
 H1 0.458195 0.795989 0.26700  0.101165
 H1 0.432031 0.93133 0.27202  0.101165
 H1 0.394979 0.485434 0.49787  0.101165
 H1 0.303177 0.482236 0.57985  0.101165
 H1 0.243122 0.252627 0.55194  0.101165
 H1 0.335437 0.257184 0.46905  0.101165
 H1 0.177173 0.481438 0.618  0.101165
 H1 0.231418 0.249914 0.63844  0.101165
 H1 0.161847 0.067289 0.33652  0.101165
 H1 0.003581 0.113302 0.33553  0.101165
 H1 0.105234 0.335954 0.34721  0.101165
 H1 0.263143 0.288825 0.34543  0.101165
 H1 0.086264 0.479535 0.70159  0.101165
 H1 0.134331 0.248511 0.71947  0.101165
 H1 0.474469 0.558487 0.42369  0.101165
 H1 0.460016 0.695649 0.42573  0.101165
 H1 0.591777 0.700809 0.27182  0.101165
 H1 0.603778 0.564002 0.27732  0.101165
 H1 0.609829 0.017643 0.4956  0.101165
 H1 0.704557 0.020173 0.57703  0.101165
 H1 0.715442 0.257152 0.56935  0.101165
 H1 0.616285 0.25343 0.48847  0.101165
 H1 0.844855 0.041174 0.60816  0.101165
 H1 0.712146 0.238534 0.66154  0.101165
 H1 0.823803 0.407063 0.30682  0.101165
 H1 0.97921 0.356808 0.29928  0.101165
 H1 0.893354 0.163437 0.38575  0.101165
 H1 0.737423 0.213691 0.39097  0.101165
 H1 0.930983 0.037079 0.69344  0.101165
 H1 0.800365 0.234123 0.74612  0.101165
 C1 0.48387 0.089282 0.60844  0.18111
 C2 0.467988 0.164412 0.60790  -0.101662142857
 C3 0.488314 0.206409 0.65336  -0.0322985714286
 C2 0.52341 0.169929 0.69794  -0.101662142857
 C1 0.538869 0.094686 0.69498  0.18111
 C3 0.629454 0.624169 0.52315  -0.0322985714286
 C2 0.639791 0.560907 0.49169  -0.101662142857
 C2 0.691798 0.562956 0.44549  -0.101662142857
 C3 0.734231 0.628534 0.42847  -0.0322985714286
 C2 0.72285 0.691899 0.46023  -0.101662142857
 C2 0.671926 0.689754 0.50689  -0.101662142857
 C3 0.789046 0.630259 0.37908  -0.0322985714286
 C2 0.830194 0.565804 0.35972  -0.101662142857
 C2 0.802055 0.69573 0.34989  -0.101662142857
 C4 0.68198 0.848019 0.65759  0.745673333333
 C3 0.777804 0.821657 0.65794  -0.0322985714286
 C2 0.851402 0.870809 0.65978  -0.101662142857
 C2 0.939846 0.84459 0.66028  -0.101662142857
 C3 0.957498 0.76854 0.65811  -0.0322985714286
 C2 0.882781 0.719786 0.65623  -0.101662142857
 C2 0.794301 0.74573 0.65657  -0.101662142857
 C4 0.952628 0.633454 0.23591  0.745673333333
 C3 0.895711 0.632553 0.28531  -0.0322985714286
 C2 0.881754 0.566857 0.31340  -0.101662142857
 C2 0.855333 0.697239 0.30410  -0.101662142857
 C4 0.575936 0.622596 0.57380  0.745673333333
 C1 0.500679 0.404305 0.61056  0.18111
 C2 0.508294 0.328316 0.60961  -0.101662142857
 C3 0.476639 0.287096 0.65304  -0.0322985714286
 C2 0.435749 0.324937 0.69534  -0.101662142857
 C1 0.428821 0.401099 0.69272  0.18111
 C3 0.39379 0.861381 0.51259  -0.0322985714286
 C2 0.366264 0.926938 0.48825  -0.101662142857
 C2 0.311976 0.925404 0.44293  -0.101662142857
 C3 0.282685 0.858053 0.42073  -0.0322985714286
 C2 0.308332 0.792499 0.44632  -0.101662142857
 C2 0.3633 0.794033 0.49146  -0.101662142857
 C3 0.227914 0.857426 0.37140  -0.0322985714286
 C2 0.16521 0.913828 0.3616  -0.101662142857
 C2 0.238485 0.802432 0.33231  -0.101662142857
 C4 0.320844 0.651001 0.64301  0.745673333333
 C3 0.228273 0.682478 0.64939  -0.0322985714286
 C2 0.159636 0.64303 0.67573  -0.101662142857
 C2 0.072641 0.671561 0.67947  -0.101662142857
 C3 0.051239 0.740188 0.65679  -0.0322985714286
 C2 0.121435 0.780133 0.63172  -0.101662142857
 C2 0.208613 0.751899 0.62814  -0.101662142857
 C4 0.079408 0.866585 0.2231  0.745673333333
 C3 0.129236 0.86211 0.27494  -0.0322985714286
 C2 0.116693 0.916091 0.31422  -0.101662142857
 C2 0.190014 0.80471 0.2847  -0.101662142857
 C4 0.455221 0.86234 0.56014  0.745673333333
 C1 0.998056 0.404687 0.10995  0.18111
 C2 0.991656 0.328542 0.10894  -0.101662142857
 C3 0.025968 0.287921 0.15180  -0.0322985714286
 C2 0.067949 0.326522 0.19363  -0.101662142857
 C1 0.073451 0.402815 0.1911  0.18111
 C3 0.108765 0.861739 0.01112  -0.0322985714286
 C2 0.134879 0.927631 0.98630  -0.101662142857
 C2 0.187918 0.926808 0.94049  -0.101662142857
 C3 0.217152 0.859815 0.91830  -0.0322985714286
 C2 0.19263 0.793935 0.94420  -0.101662142857
 C2 0.139094 0.794786 0.98988  -0.101662142857
 C3 0.27168 0.859618 0.86894  -0.0322985714286
 C2 0.336071 0.915674 0.85971  -0.101662142857
 C2 0.260001 0.804911 0.82966  -0.101662142857
 C4 0.181403 0.650864 0.14540  0.745673333333
 C3 0.274569 0.682213 0.15218  -0.0322985714286
 C2 0.343626 0.641118 0.17608  -0.101662142857
 C2 0.431255 0.669509 0.1796  -0.101662142857
 C3 0.452816 0.739875 0.15953  -0.0322985714286
 C2 0.382151 0.781461 0.13711  -0.101662142857
 C2 0.294467 0.753196 0.13344  -0.101662142857
 C4 0.425122 0.866816 0.7224  0.745673333333
 C3 0.372902 0.863449 0.77349  -0.0322985714286
 C2 0.385903 0.917498 0.81278  -0.101662142857
 C2 0.309763 0.80677 0.78253  -0.101662142857
 C4 0.049023 0.861729 0.05936  0.745673333333
 C1 0.019932 0.09009 0.10698  0.18111
 C2 0.034033 0.165637 0.10614  -0.101662142857
 C3 0.0 0.206983 0.15214  -0.0322985714286
 C2 0.985255 0.169522 0.19753  -0.101662142857
 C1 0.971527 0.093889 0.19489  0.18111
 C3 0.872901 0.625976 0.02242  -0.0322985714286
 C2 0.862184 0.563148 0.99041  -0.101662142857
 C2 0.80927 0.565388 0.94457  -0.101662142857
 C3 0.766558 0.63077 0.9284  -0.0322985714286
 C2 0.778687 0.693812 0.96059  -0.101662142857
 C2 0.83034 0.691401 0.00698  -0.101662142857
 C3 0.710464 0.632431 0.87960  -0.0322985714286
 C2 0.66736 0.567907 0.86099  -0.101662142857
 C2 0.698282 0.697675 0.85022  -0.101662142857
 C4 0.823174 0.849925 0.15881  0.745673333333
 C3 0.727247 0.822662 0.15988  -0.0322985714286
 C2 0.654261 0.87117 0.16474  -0.101662142857
 C2 0.56561 0.844396 0.16564  -0.101662142857
 C3 0.546983 0.768511 0.16072  -0.0322985714286
 C2 0.621095 0.720416 0.15590  -0.101662142857
 C2 0.709897 0.746818 0.1559  -0.101662142857
 C4 0.545499 0.634113 0.73704  0.745673333333
 C3 0.602311 0.633962 0.78648  -0.0322985714286
 C2 0.615026 0.568578 0.81496  -0.101662142857
 C2 0.644308 0.698798 0.80467  -0.101662142857
 C4 0.926496 0.623955 0.07301  0.745673333333
 C1 0.002936 0.592419 0.88996  0.18111
 C2 0.0092 0.668564 0.89076  -0.101662142857
 C3 0.974023 0.708959 0.84803  -0.0322985714286
 C2 0.931478 0.670121 0.80651  -0.101662142857
 C1 0.926168 0.593827 0.80924  0.18111
 C3 0.891585 0.135052 0.98897  -0.0322985714286
 C2 0.865403 0.069204 0.0138  -0.101662142857
 C2 0.812407 0.070117 0.05965  -0.101662142857
 C3 0.78331 0.137151 0.08184  -0.0322985714286
 C2 0.807943 0.202994 0.05592  -0.101662142857
 C2 0.861447 0.202054 0.  -0.101662142857
 C3 0.728696 0.13738 0.1311  -0.0322985714286
 C2 0.664425 0.081231 0.14039  -0.101662142857
 C2 0.740133 0.192167 0.17041  -0.101662142857
 C4 0.818598 0.345682 0.85606  0.745673333333
 C3 0.725234 0.314716 0.84940  -0.0322985714286
 C2 0.656199 0.356073 0.82573  -0.101662142857
 C2 0.568571 0.327711 0.82201  -0.101662142857
 C3 0.546978 0.257205 0.84186  -0.0322985714286
 C2 0.617578 0.215453 0.86418  -0.101662142857
 C2 0.705278 0.243632 0.86792  -0.101662142857
 C4 0.574944 0.130068 0.27755  0.745673333333
 C3 0.62726 0.133503 0.22654  -0.0322985714286
 C2 0.614489 0.079385 0.18728  -0.101662142857
 C2 0.690263 0.190286 0.21751  -0.101662142857
 C4 0.951212 0.13495 0.94069  0.745673333333
 C1 0.980398 0.906701 0.89293  0.18111
 C2 0.966303 0.831157 0.89374  -0.101662142857
 C3 0.983688 0.789912 0.84761  -0.0322985714286
 C2 0.013788 0.827475 0.80210  -0.101662142857
 C1 0.027572 0.903103 0.80478  0.18111
 C3 0.129001 0.371206 0.97768  -0.0322985714286
 C2 0.139475 0.434258 0.00950  -0.101662142857
 C2 0.191762 0.432305 0.05559  -0.101662142857
 C3 0.234265 0.367031 0.07211  -0.0322985714286
 C2 0.222583 0.303817 0.04009  -0.101662142857
 C2 0.171465 0.305914 0.99347  -0.101662142857
 C3 0.289464 0.365608 0.12134  -0.0322985714286
 C2 0.331821 0.430273 0.14030  -0.101662142857
 C2 0.301515 0.30037 0.15074  -0.101662142857
 C4 0.17678 0.146904 0.84133  0.745673333333
 C3 0.27268 0.174224 0.8406  -0.0322985714286
 C2 0.345753 0.125784 0.83587  -0.101662142857
 C2 0.434373 0.152638 0.83528  -0.101662142857
 C3 0.452861 0.228516 0.84043  -0.0322985714286
 C2 0.378665 0.276529 0.84519  -0.101662142857
 C2 0.289902 0.250058 0.84483  -0.101662142857
 C4 0.453002 0.363904 0.26448  0.745673333333
 C3 0.396249 0.364282 0.21502  -0.0322985714286
 C2 0.383433 0.429706 0.18662  -0.101662142857
 C2 0.35485 0.299348 0.19654  -0.101662142857
 C4 0.075194 0.372956 0.92716  0.745673333333
 C1 0.516001 0.907734 0.39211  0.18111
 C2 0.531769 0.832591 0.39297  -0.101662142857
 C3 0.511423 0.790243 0.34768  -0.0322985714286
 C2 0.476255 0.826391 0.30298  -0.101662142857
 C1 0.460902 0.901674 0.30562  0.18111
 C3 0.370775 0.371432 0.47793  -0.0322985714286
 C2 0.360745 0.43464 0.50948  -0.101662142857
 C2 0.308694 0.43263 0.55564  -0.101662142857
 C3 0.26597 0.367118 0.57250  -0.0322985714286
 C2 0.277159 0.303756 0.54071  -0.101662142857
 C2 0.32806 0.305901 0.49404  -0.101662142857
 C3 0.211004 0.365606 0.62180  -0.0322985714286
 C2 0.16961 0.430158 0.64079  -0.101662142857
 C2 0.198106 0.300335 0.65121  -0.101662142857
 C4 0.317918 0.148868 0.34135  0.745673333333
 C3 0.222062 0.175205 0.34093  -0.0322985714286
 C2 0.148493 0.126054 0.33869  -0.101662142857
 C2 0.060033 0.152248 0.33835  -0.101662142857
 C3 0.042331 0.22826 0.34104  -0.0322985714286
 C2 0.117011 0.277016 0.34330  -0.101662142857
 C2 0.205513 0.251108 0.34286  -0.101662142857
 C4 0.046789 0.363181 0.76459  0.745673333333
 C3 0.103999 0.363888 0.71535  -0.0322985714286
 C2 0.117889 0.429403 0.68704  -0.101662142857
 C2 0.144638 0.299109 0.69693  -0.101662142857
 C4 0.424381 0.373326 0.42736  0.745673333333
 C1 0.499496 0.592554 0.39116  0.18111
 C2 0.491769 0.668546 0.39189  -0.101662142857
 C3 0.523143 0.709556 0.34828  -0.0322985714286
 C2 0.563985 0.671515 0.30606  -0.101662142857
 C1 0.571031 0.595374 0.30889  0.18111
 C3 0.605515 0.135561 0.48760  -0.0322985714286
 C2 0.633185 0.070035 0.5119  -0.101662142857
 C2 0.687405 0.071621 0.55726  -0.101662142857
 C3 0.716528 0.138999 0.57950  -0.0322985714286
 C2 0.69071 0.204532 0.55394  -0.101662142857
 C2 0.635814 0.202944 0.50877  -0.101662142857
 C3 0.771312 0.13961 0.62882  -0.0322985714286
 C2 0.833997 0.083172 0.63853  -0.101662142857
 C2 0.76085 0.194557 0.66796  -0.101662142857
 C4 0.678879 0.345361 0.35697  0.745673333333
 C3 0.771493 0.314097 0.35027  -0.0322985714286
 C2 0.840024 0.353789 0.32403  -0.101662142857
 C2 0.927059 0.325351 0.32015  -0.101662142857
 C3 0.948565 0.256555 0.3425  -0.0322985714286
 C2 0.878455 0.216369 0.36747  -0.101662142857
 C2 0.791269 0.244529 0.37122  -0.101662142857
 C4 0.920234 0.130212 0.77698  0.745673333333
 C3 0.870189 0.134751 0.72522  -0.0322985714286
 C2 0.882585 0.080803 0.68590  -0.101662142857
 C2 0.809429 0.192196 0.71553  -0.101662142857
 C4 0.544185 0.134545 0.44000  0.745673333333
 N1 0.519941 0.054662 0.65097  -0.34395
 N1 0.461686 0.440601 0.65145  -0.34395
 N1 0.038212 0.441641 0.15038  -0.34395
 N1 0.987987 0.054502 0.15036  -0.34395
 N1 0.962113 0.555231 0.84988  -0.34395
 N1 0.011792 0.942372 0.84946  -0.34395
 N1 0.479954 0.942055 0.34944  -0.34395
 N1 0.538402 0.556077 0.35032  -0.34395
 O1 0.668278 0.915673 0.64372  -0.633615
 O1 0.964596 0.570421 0.21345  -0.633615
 O1 0.523513 0.566176 0.58088  -0.633615
 O1 0.586541 0.674686 0.60657  -0.633615
 O1 0.62048 0.803735 0.6714  -0.633615
 O1 0.984941 0.694173 0.22038  -0.633615
 O1 0.332634 0.584463 0.65968  -0.633615
 O1 0.026243 0.922044 0.21776  -0.633615
 O1 0.467666 0.925602 0.58247  -0.633615
 O1 0.491386 0.802861 0.57432  -0.633615
 O1 0.382295 0.688606 0.6206  -0.633615
 O1 0.093682 0.818404 0.18773  -0.633615
 O1 0.16769 0.584347 0.16190  -0.633615
 O1 0.480669 0.921514 0.71768  -0.633615
 O1 0.035404 0.924999 0.08121  -0.633615
 O1 0.01549 0.80126 0.07442  -0.633615
 O1 0.121175 0.688657 0.12268  -0.633615
 O1 0.410505 0.818342 0.68720  -0.633615
 O1 0.836768 0.918086 0.14588  -0.633615
 O1 0.531877 0.570577 0.71542  -0.633615
 O1 0.979908 0.56856 0.07916  -0.633615
 O1 0.914878 0.674756 0.10664  -0.633615
 O1 0.885344 0.80604 0.17106  -0.633615
 O1 0.515018 0.694577 0.72058  -0.633615
 O1 0.832314 0.412551 0.84030  -0.633615
 O1 0.519549 0.07527 0.28231  -0.633615
 O1 0.964565 0.071685 0.91878  -0.633615
 O1 0.984963 0.195334 0.92563  -0.633615
 O1 0.87891 0.307102 0.87795  -0.633615
 O1 0.589361 0.178602 0.31277  -0.633615
 O1 0.163129 0.078719 0.85415  -0.633615
 O1 0.465221 0.427037 0.28697  -0.633615
 O1 0.022371 0.428741 0.92101  -0.633615
 O1 0.085778 0.321882 0.89365  -0.633615
 O1 0.114687 0.190775 0.82890  -0.633615
 O1 0.484908 0.303414 0.28001  -0.633615
 O1 0.331502 0.080907 0.35442  -0.633615
 O1 0.034854 0.426161 0.78708  -0.633615
 O1 0.477692 0.42941 0.42110  -0.633615
 O1 0.413143 0.322177 0.39390  -0.633615
 O1 0.379546 0.193549 0.3284  -0.633615
 O1 0.014168 0.302469 0.77995  -0.633615
 O1 0.666641 0.411951 0.340  -0.633615
 O1 0.973448 0.074755 0.78222  -0.633615
 O1 0.531668 0.071252 0.41771  -0.633615
 O1 0.508184 0.194019 0.42571  -0.633615
 O1 0.617879 0.307426 0.37946  -0.633615
 O1 0.906148 0.178359 0.81238  -0.633615
