#======================================================================

# CRYSTAL DATA

#----------------------------------------------------------------------

data_VESTA_phase_1


_pd_phase_name                         MOF
_cell_length_a                         9.99800
_cell_length_b                         16.52500
_cell_length_c                         12.64100
_cell_angle_alpha                      89.83700
_cell_angle_beta                       89.87100
_cell_angle_gamma                      88.71700
_symmetry_space_group_name_H-M         "P 1"
_symmetry_Int_Tables_number            1

loop_
_symmetry_equiv_pos_as_xyz
   "x, y, z"

loop_
   _atom_site_label
   _atom_site_fract_x
   _atom_site_fract_y
   _atom_site_fract_z
 _atom_site_charge
 Ga1 0.263231 0.025371 0.48525  1.74500892857
 Ga1 0.234682 0.476348 0.51482  1.74500892857
 Ga1 0.733408 0.976506 0.51418  1.74500892857
 Ga1 0.765668 0.526734 0.48529  1.74500892857
 Ga1 0.23403 0.975967 0.98644  1.74500892857
 Ga1 0.265215 0.523968 0.01136  1.74500892857
 Ga1 0.765127 0.023487 0.01338  1.74500892857
 Ga1 0.734149 0.475816 0.98855  1.74500892857
 Ga2 0.386902 0.443736 0.76728  1.69825392857
 Ga2 0.377986 0.94355 0.72998  1.69825392857
 Ga2 0.877837 0.443666 0.73004  1.69825392857
 Ga2 0.884041 0.944122 0.76871  1.69825392857
 Ga2 0.116531 0.056975 0.2303  1.69825392857
 Ga2 0.122052 0.558697 0.26944  1.69825392857
 Ga2 0.616465 0.055868 0.26889  1.69825392857
 Ga2 0.615076 0.557537 0.23202  1.69825392857
 P1 0.525901 0.398341 0.55451  1.55614392857
 P1 0.464942 0.876486 0.51673  1.55614392857
 P1 0.965586 0.377169 0.51512  1.55614392857
 P1 0.0 0.898393 0.55583  1.55614392857
 P1 0.031705 0.124399 0.01643  1.55614392857
 P1 0.975033 0.602463 0.0593  1.55614392857
 P1 0.474417 0.102546 0.05753  1.55614392857
 P1 0.530442 0.624714 0.01661  1.55614392857
 P1 0.973768 0.104449 0.44169  1.55614392857
 P1 0.034596 0.625702 0.48425  1.55614392857
 P1 0.532037 0.125262 0.4819  1.55614392857
 P1 0.474982 0.603843 0.4444  1.55614392857
 P1 0.468806 0.375332 0.98268  1.55614392857
 P1 0.52385 0.897271 0.94026  1.55614392857
 P1 0.0 0.397332 0.94027  1.55614392857
 P1 0.968571 0.874997 0.98274  1.55614392857
 C1 0.55339 0.293333 0.55557  -0.192941071429
 C1 0.443749 0.780991 0.46132  -0.192941071429
 C1 0.942771 0.281643 0.46014  -0.192941071429
 C1 0.0 0.793608 0.55806  -0.192941071429
 C1 0.052598 0.220023 0.96044  -0.192941071429
 C1 0.949158 0.707498 0.  -0.192941071429
 C1 0.448186 0.207646 0.  -0.192941071429
 C1 0.554159 0.720099 0.96079  -0.192941071429
 C1 0.945998 0.209446 0.44022  -0.192941071429
 C1 0.057328 0.721361 0.53866  -0.192941071429
 C1 0.555253 0.221157 0.53558  -0.192941071429
 C1 0.446922 0.708807 0.44133  -0.192941071429
 C1 0.444411 0.279744 0.03759  -0.192941071429
 C1 0.549866 0.792107 0.93923  -0.192941071429
 C1 0.0 0.292091 0.93918  -0.192941071429
 C1 0.94515 0.779386 0.03772  -0.192941071429
 O1 0.116717 0.385001 0.52362  -0.845229404762
 O1 0.140887 0.933589 0.49581  -0.845229404762
 O1 0.643155 0.433857 0.49503  -0.845229404762
 O1 0.615751 0.885135 0.5276  -0.845229404762
 O1 0.389858 0.406197 0.49979  -0.845229404762
 O1 0.400192 0.944294 0.45005  -0.845229404762
 O1 0.900909 0.445353 0.4489  -0.845229404762
 O1 0.888248 0.906019 0.50020  -0.845229404762
 O1 0.525436 0.430734 0.67126  -0.845229404762
 O1 0.394472 0.865375 0.62699  -0.845229404762
 O1 0.896675 0.366467 0.6259  -0.845229404762
 O1 0.0 0.931332 0.67214  -0.845229404762
 O1 0.354693 0.06887 0.99982  -0.845229404762
 O1 0.378896 0.616807 0.  -0.845229404762
 O1 0.880824 0.115386 0.  -0.845229404762
 O1 0.853272 0.568936 0.  -0.845229404762
 O1 0.097413 0.056813 0.95015  -0.845229404762
 O1 0.108008 0.592972 0.99996  -0.845229404762
 O1 0.609124 0.093547 0.  -0.845229404762
 O1 0.597718 0.556439 0.95259  -0.845229404762
 O1 0.100601 0.135282 0.12690  -0.845229404762
 O1 0.980953 0.569837 0.17585  -0.845229404762
 O1 0.476954 0.069503 0.1740  -0.845229404762
 O1 0.594449 0.635522 0.12885  -0.845229404762
 O1 0.380903 0.117064 0.47344  -0.845229404762
 O1 0.357463 0.569146 0.50453  -0.845229404762
 O1 0.855271 0.06919 0.4999  -0.845229404762
 O1 0.883366 0.618101 0.47643  -0.845229404762
 O1 0.108658 0.096537 0.49831  -0.845229404762
 O1 0.099437 0.55779 0.55076  -0.845229404762
 O1 0.597618 0.058018 0.549  -0.845229404762
 O1 0.610586 0.596931 0.5001  -0.845229404762
 O1 0.976813 0.072209 0.32491  -0.845229404762
 O1 0.102784 0.636164 0.37305  -0.845229404762
 O1 0.600104 0.135038 0.37052  -0.845229404762
 O1 0.47664 0.569756 0.32860  -0.845229404762
 O1 0.145803 0.430683 0.9955  -0.845229404762
 O1 0.119967 0.883025 0.97669  -0.845229404762
 O1 0.620442 0.383103 0.97787  -0.845229404762
 O1 0.645161 0.930778 0.99586  -0.845229404762
 O1 0.401384 0.443331 0.047  -0.845229404762
 O1 0.390677 0.906487 0.9994  -0.845229404762
 O1 0.891186 0.406743 0.99987  -0.845229404762
 O1 0.901221 0.942337 0.04821  -0.845229404762
 O1 0.405594 0.365082 0.87010  -0.845229404762
 O1 0.51848 0.930375 0.82385  -0.845229404762
 O1 0.0 0.430431 0.82397  -0.845229404762
 O1 0.90404 0.864912 0.87046  -0.845229404762
 F1 0.244546 0.455038 0.67601  -0.549146071429
 F1 0.316879 0.0 0.64359  -0.549146071429
 F1 0.816933 0.528029 0.64372  -0.549146071429
 F1 0.74422 0.958595 0.67616  -0.549146071429
 F1 0.17747 0.972398 0.14415  -0.549146071429
 F1 0.260443 0.541613 0.17568  -0.549146071429
 F1 0.755451 0.038127 0.17588  -0.549146071429
 F1 0.677519 0.47234 0.14807  -0.549146071429
 F1 0.255493 0.041619 0.32365  -0.549146071429
 F1 0.183175 0.4751 0.35654  -0.549146071429
 F1 0.677599 0.972148 0.3564  -0.549146071429
 F1 0.756204 0.548344 0.32396  -0.549146071429
 F1 0.322509 0.52783 0.85206  -0.549146071429
 F1 0.239254 0.958457 0.82393  -0.549146071429
 F1 0.739332 0.458484 0.82421  -0.549146071429
 F1 0.82249 0.0 0.85589  -0.549146071429
