#======================================================================

# CRYSTAL DATA

#----------------------------------------------------------------------

data_VESTA_phase_1


_pd_phase_name                         MOF
_cell_length_a                         14.55900
_cell_length_b                         18.46300
_cell_length_c                         15.52100
_cell_angle_alpha                      100.71300
_cell_angle_beta                       95.55800
_cell_angle_gamma                      90.88100
_symmetry_space_group_name_H-M         "P 1"
_symmetry_Int_Tables_number            1

loop_
_symmetry_equiv_pos_as_xyz
   "x, y, z"

loop_
   _atom_site_label
   _atom_site_fract_x
   _atom_site_fract_y
   _atom_site_fract_z
 _atom_site_charge
 Ag1 0.223269 0.344533 0.61220  0.463331829268
 Ag1 0.223271 0.844537 0.61222  0.463331829268
 Ag1 0.723208 0.34472 0.61236  0.463331829268
 Ag1 0.723115 0.844842 0.6124  0.463331829268
 Ag1 0.098556 0.21692 0.29749  0.463331829268
 Ag1 0.098167 0.716915 0.29760  0.463331829268
 Ag1 0.598681 0.217009 0.29766  0.463331829268
 Ag1 0.598249 0.716952 0.29771  0.463331829268
 Ag1 0.276519 0.155111 0.38827  0.463331829268
 Ag1 0.276704 0.654665 0.38784  0.463331829268
 Ag1 0.776789 0.155004 0.38821  0.463331829268
 Ag1 0.776688 0.654626 0.38771  0.463331829268
 Ag1 0.401182 0.281863 0.70193  0.463331829268
 Ag1 0.401581 0.781977 0.70190  0.463331829268
 Ag1 0.901225 0.281961 0.70201  0.463331829268
 Ag1 0.901719 0.78214 0.70199  0.463331829268
 H1 0.141295 0.347736 0.20607  0.110403495935
 H1 0.141083 0.847654 0.20618  0.110403495935
 H1 0.641898 0.347777 0.20625  0.110403495935
 H1 0.641725 0.847653 0.20638  0.110403495935
 H1 0.163034 0.379271 0.06256  0.110403495935
 H1 0.162942 0.87923 0.06273  0.110403495935
 H1 0.663752 0.379298 0.06275  0.110403495935
 H1 0.663699 0.879225 0.06294  0.110403495935
 H1 0.096517 0.150542 0.94448  0.110403495935
 H1 0.096598 0.65049 0.94457  0.110403495935
 H1 0.5961 0.150773 0.94451  0.110403495935
 H1 0.596137 0.650708 0.94459  0.110403495935
 H1 0.080012 0.128423 0.09438  0.110403495935
 H1 0.0799 0.628352 0.09443  0.110403495935
 H1 0.579628 0.128628 0.09442  0.110403495935
 H1 0.57953 0.628524 0.09447  0.110403495935
 H1 0.157688 0.403243 0.94022  0.110403495935
 H1 0.158087 0.903211 0.94047  0.110403495935
 H1 0.657248 0.403414 0.94026  0.110403495935
 H1 0.657608 0.903363 0.94055  0.110403495935
 H1 0.194402 0.424793 0.79424  0.110403495935
 H1 0.194828 0.924776 0.79449  0.110403495935
 H1 0.693906 0.42503 0.79428  0.110403495935
 H1 0.694339 0.925002 0.79458  0.110403495935
 H1 0.169663 0.200236 0.68903  0.110403495935
 H1 0.169736 0.700274 0.68919  0.110403495935
 H1 0.670154 0.200407 0.68924  0.110403495935
 H1 0.670101 0.700454 0.68938  0.110403495935
 H1 0.139621 0.168886 0.82742  0.110403495935
 H1 0.139543 0.668892 0.82749  0.110403495935
 H1 0.640271 0.169012 0.82763  0.110403495935
 H1 0.640123 0.669007 0.82769  0.110403495935
 H1 0.021886 0.055552 0.26433  0.110403495935
 H1 0.015635 0.557175 0.26450  0.110403495935
 H1 0.520171 0.056125 0.26441  0.110403495935
 H1 0.514536 0.557581 0.264  0.110403495935
 H1 0.470367 0.46191 0.34421  0.110403495935
 H1 0.476901 0.960166 0.34392  0.110403495935
 H1 0.971722 0.461472 0.34415  0.110403495935
 H1 0.979001 0.959521 0.34392  0.110403495935
 H1 0.050595 0.11642 0.58692  0.110403495935
 H1 0.057698 0.614532 0.58718  0.110403495935
 H1 0.552856 0.115852 0.58708  0.110403495935
 H1 0.559135 0.61407 0.58723  0.110403495935
 H1 0.089546 0.207003 0.49582  0.110403495935
 H1 0.094317 0.705751 0.49604  0.110403495935
 H1 0.591195 0.206633 0.49603  0.110403495935
 H1 0.595411 0.705458 0.49617  0.110403495935
 H1 0.357869 0.151581 0.79387  0.110403495935
 H1 0.358059 0.651663 0.79368  0.110403495935
 H1 0.858534 0.151559 0.79396  0.110403495935
 H1 0.858882 0.651691 0.79376  0.110403495935
 H1 0.335997 0.120295 0.93747  0.110403495935
 H1 0.336044 0.620299 0.93720  0.110403495935
 H1 0.836792 0.120208 0.93755  0.110403495935
 H1 0.8369 0.620279 0.9372  0.110403495935
 H1 0.403663 0.348908 0.05527  0.110403495935
 H1 0.403596 0.848894 0.05519  0.110403495935
 H1 0.903182 0.34903 0.05527  0.110403495935
 H1 0.902959 0.849122 0.05513  0.110403495935
 H1 0.420165 0.370802 0.90527  0.110403495935
 H1 0.420286 0.870859 0.90524  0.110403495935
 H1 0.919687 0.370955 0.90529  0.110403495935
 H1 0.919753 0.871096 0.90522  0.110403495935
 H1 0.342077 0.096323 0.05992  0.110403495935
 H1 0.341662 0.596288 0.05950  0.110403495935
 H1 0.841908 0.096333 0.05987  0.110403495935
 H1 0.841485 0.596382 0.05940  0.110403495935
 H1 0.305538 0.074815 0.2059  0.110403495935
 H1 0.304985 0.57469 0.20545  0.110403495935
 H1 0.805328 0.074823 0.20586  0.110403495935
 H1 0.804788 0.574765 0.20533  0.110403495935
 H1 0.330179 0.299437 0.31096  0.110403495935
 H1 0.330031 0.79922 0.31077  0.110403495935
 H1 0.830372 0.299408 0.31102  0.110403495935
 H1 0.830225 0.79925 0.31079  0.110403495935
 H1 0.359924 0.330712 0.17251  0.110403495935
 H1 0.359966 0.830617 0.17243  0.110403495935
 H1 0.860339 0.330689 0.17264  0.110403495935
 H1 0.860392 0.830669 0.17253  0.110403495935
 H1 0.47684 0.44388 0.73548  0.110403495935
 H1 0.482686 0.942467 0.73543  0.110403495935
 H1 0.978046 0.443693 0.73557  0.110403495935
 H1 0.984349 0.942134 0.73542  0.110403495935
 H1 0.028136 0.037963 0.65587  0.110403495935
 H1 0.020832 0.539882 0.65612  0.110403495935
 H1 0.526143 0.03845 0.65600  0.110403495935
 H1 0.519438 0.540171 0.65609  0.110403495935
 H1 0.450582 0.382848 0.41296  0.110403495935
 H1 0.444263 0.884497 0.41274  0.110403495935
 H1 0.949192 0.383179 0.41298  0.110403495935
 H1 0.942041 0.885087 0.41276  0.110403495935
 H1 0.41141 0.292164 0.50381  0.110403495935
 H1 0.407164 0.793297 0.50365  0.110403495935
 H1 0.910372 0.292458 0.50390  0.110403495935
 H1 0.905528 0.793756 0.50375  0.110403495935
 C1 0.183008 0.355138 0.41194  0.608291829268
 C1 0.18291 0.8551 0.41169  0.608291829268
 C1 0.683072 0.355262 0.41224  0.608291829268
 C1 0.682841 0.8552 0.41180  0.608291829268
 C2 0.220274 0.431484 0.45614  0.0676718292683
 C2 0.220249 0.931407 0.45600  0.0676718292683
 C2 0.720387 0.431622 0.45632  0.0676718292683
 C2 0.720159 0.931522 0.4560  0.0676718292683
 C2 0.253583 0.013099 0.59023  0.0676718292683
 C2 0.253595 0.513305 0.5903  0.0676718292683
 C2 0.753542 0.013232 0.59027  0.0676718292683
 C2 0.753735 0.513508 0.5904  0.0676718292683
 C1 0.245805 0.027104 0.68931  0.608291829268
 C1 0.245609 0.527505 0.68935  0.608291829268
 C1 0.745733 0.027256 0.68933  0.608291829268
 C1 0.745705 0.527847 0.68946  0.608291829268
 C3 0.130949 0.305756 0.14623  0.159643495935
 C3 0.130779 0.805687 0.14633  0.159643495935
 C3 0.631359 0.305831 0.14639  0.159643495935
 C3 0.631222 0.805728 0.14651  0.159643495935
 C4 0.142624 0.322642 0.06427  -0.183394004065
 C4 0.142535 0.822592 0.06441  -0.183394004065
 C4 0.643063 0.322722 0.06444  -0.183394004065
 C4 0.643001 0.822642 0.06459  -0.183394004065
 C5 0.130845 0.267737 0.98783  0.0835918292683
 C5 0.130842 0.767697 0.98795  0.0835918292683
 C5 0.631007 0.267869 0.98796  0.0835918292683
 C5 0.630982 0.767808 0.98809  0.0835918292683
 C4 0.107372 0.196434 6.1e-0  -0.183394004065
 C4 0.107365 0.696384 0.00015  -0.183394004065
 C4 0.607222 0.196612 0.00013  -0.183394004065
 C4 0.6072 0.696539 0.00023  -0.183394004065
 C3 0.097411 0.183635 0.08415  0.159643495935
 C3 0.097302 0.683571 0.08422  0.159643495935
 C3 0.597264 0.183806 0.08423  0.159643495935
 C3 0.597166 0.683708 0.08430  0.159643495935
 C5 0.144487 0.283609 0.89966  0.0835918292683
 C5 0.144589 0.783594 0.89982  0.0835918292683
 C5 0.644622 0.283755 0.89979  0.0835918292683
 C5 0.644683 0.783723 0.89996  0.0835918292683
 C4 0.158955 0.356134 0.88653  -0.183394004065
 C4 0.159224 0.856116 0.88674  -0.183394004065
 C4 0.658762 0.356307 0.88661  -0.183394004065
 C4 0.658997 0.856276 0.88685  -0.183394004065
 C3 0.177532 0.369388 0.80471  0.159643495935
 C3 0.177826 0.869385 0.8049  0.159643495935
 C3 0.677294 0.369589 0.8047  0.159643495935
 C3 0.677548 0.869581 0.80505  0.159643495935
 C3 0.164707 0.244598 0.74517  0.159643495935
 C3 0.164791 0.74463 0.7453  0.159643495935
 C3 0.665013 0.244766 0.74534  0.159643495935
 C3 0.665022 0.7448 0.74550  0.159643495935
 C4 0.146881 0.22731 0.82556  -0.183394004065
 C4 0.14691 0.72732 0.82569  -0.183394004065
 C4 0.647265 0.227451 0.82574  -0.183394004065
 C4 0.647232 0.727451 0.82587  -0.183394004065
 C3 0.026037 0.06742 0.33588  0.159643495935
 C3 0.022558 0.568351 0.33615  0.159643495935
 C3 0.525131 0.067768 0.33600  0.159643495935
 C3 0.521975 0.568584 0.33624  0.159643495935
 C4 0.502136 0.013434 0.38177  -0.183394004065
 C4 0.498952 0.514255 0.38199  -0.183394004065
 C4 0.0 0.013102 0.381  -0.183394004065
 C4 0.999577 0.514038 0.38194  -0.183394004065
 C5 0.011177 0.028263 0.47423  0.0835918292683
 C5 0.011266 0.528263 0.47449  0.0835918292683
 C5 0.511291 0.028276 0.4743  0.0835918292683
 C5 0.511314 0.528257 0.47453  0.0835918292683
 C4 0.042131 0.100074 0.51554  -0.183394004065
 C4 0.045475 0.599209 0.51582  -0.183394004065
 C4 0.543245 0.099823 0.51569  -0.183394004065
 C4 0.546187 0.599004 0.51590  -0.183394004065
 C3 0.063376 0.151672 0.46518  0.159643495935
 C3 0.066025 0.651012 0.46547  0.159643495935
 C3 0.564338 0.151496 0.46537  0.159643495935
 C3 0.566655 0.650863 0.46558  0.159643495935
 C1 0.31713 0.143514 0.58835  0.608291829268
 C1 0.317269 0.643646 0.58825  0.608291829268
 C1 0.817225 0.143596 0.58833  0.608291829268
 C1 0.817339 0.643859 0.58818  0.608291829268
 C2 0.279348 0.067456 0.54373  0.0676718292683
 C2 0.279453 0.567575 0.54372  0.0676718292683
 C2 0.779451 0.067533 0.54375  0.0676718292683
 C2 0.779638 0.567724 0.5437  0.0676718292683
 C2 0.245942 0.485814 0.4095  0.0676718292683
 C2 0.245975 0.985795 0.40949  0.0676718292683
 C2 0.74612 0.485884 0.40965  0.0676718292683
 C2 0.746021 0.985852 0.40952  0.0676718292683
 C1 0.25384 0.471795 0.3104  0.608291829268
 C1 0.254117 0.971732 0.31048  0.608291829268
 C1 0.753961 0.471852 0.31058  0.608291829268
 C1 0.754159 0.971797 0.31051  0.608291829268
 C3 0.368407 0.193598 0.85366  0.159643495935
 C3 0.368552 0.693657 0.853  0.159643495935
 C3 0.86885 0.193604 0.85374  0.159643495935
 C3 0.869095 0.693724 0.85355  0.159643495935
 C4 0.356685 0.176847 0.93568  -0.183394004065
 C4 0.356741 0.676862 0.93547  -0.183394004065
 C4 0.85718 0.176823 0.93575  -0.183394004065
 C4 0.857278 0.676909 0.93551  -0.183394004065
 C5 0.36876 0.231775 0.01209  0.0835918292683
 C5 0.368743 0.731765 0.01191  0.0835918292683
 C5 0.868916 0.231792 0.01214  0.0835918292683
 C5 0.868877 0.731864 0.01192  0.0835918292683
 C4 0.392538 0.302989 0.99974  -0.183394004065
 C4 0.392541 0.802995 0.99963  -0.183394004065
 C4 0.892361 0.303067 0.99977  -0.183394004065
 C4 0.892292 0.803162 0.99961  -0.183394004065
 C3 0.402511 0.315659 0.91557  0.159643495935
 C3 0.402616 0.815706 0.91550  0.159643495935
 C3 0.90232 0.315761 0.91561  0.159643495935
 C3 0.902414 0.815886 0.91550  0.159643495935
 C5 0.355158 0.21597 0.10033  0.0835918292683
 C5 0.355017 0.715912 0.10009  0.0835918292683
 C5 0.855304 0.215966 0.10036  0.0835918292683
 C5 0.855147 0.715986 0.10009  0.0835918292683
 C4 0.340782 0.143459 0.11357  -0.183394004065
 C4 0.340464 0.643385 0.11321  -0.183394004065
 C4 0.840749 0.143461 0.11355  -0.183394004065
 C4 0.840421 0.643465 0.11315  -0.183394004065
 C3 0.322308 0.130235 0.19544  0.159643495935
 C3 0.321904 0.630105 0.19503  0.159643495935
 C3 0.822225 0.130229 0.19541  0.159643495935
 C3 0.821812 0.63017 0.1949  0.159643495935
 C3 0.335062 0.255021 0.25486  0.159643495935
 C3 0.334907 0.754851 0.25463  0.159643495935
 C3 0.835239 0.254998 0.25491  0.159643495935
 C3 0.835063 0.754892 0.25463  0.159643495935
 C4 0.352758 0.272284 0.17441  -0.183394004065
 C4 0.352676 0.772179 0.17423  -0.183394004065
 C4 0.853012 0.272265 0.17448  -0.183394004065
 C4 0.852936 0.772232 0.17427  -0.183394004065
 C3 0.473232 0.431971 0.66396  0.159643495935
 C3 0.476512 0.931175 0.66380  0.159643495935
 C3 0.973875 0.43189 0.66401  0.159643495935
 C3 0.977378 0.931022 0.66377  0.159643495935
 C4 0.996789 0.486295 0.61829  -0.183394004065
 C4 0.000328 0.985403 0.61805  -0.183394004065
 C4 0.496125 0.486404 0.61827  -0.183394004065
 C4 0.49942 0.985597 0.61812  -0.183394004065
 C5 0.488722 0.471199 0.52575  0.0835918292683
 C5 0.488733 0.97122 0.52555  0.0835918292683
 C5 0.988685 0.471232 0.52575  0.0835918292683
 C5 0.988602 0.971249 0.52550  0.0835918292683
 C4 0.458401 0.39926 0.48433  -0.183394004065
 C4 0.455472 0.900039 0.48412  -0.183394004065
 C4 0.957726 0.399443 0.48436  -0.183394004065
 C4 0.954351 0.900334 0.48411  -0.183394004065
 C3 0.437095 0.347592 0.5345  0.159643495935
 C3 0.434796 0.848196 0.53437  0.159643495935
 C3 0.936523 0.34777 0.53463  0.159643495935
 C3 0.93384 0.84847 0.53439  0.159643495935
 N1 0.225942 0.44562 0.54487  -0.309725670732
 N1 0.225902 0.945457 0.54471  -0.309725670732
 N1 0.726032 0.445818 0.54505  -0.309725670732
 N1 0.725775 0.945609 0.54476  -0.309725670732
 N1 0.108473 0.236949 0.15718  -0.309725670732
 N1 0.108287 0.736878 0.15726  -0.309725670732
 N1 0.6086 0.237068 0.15729  -0.309725670732
 N1 0.608429 0.736962 0.15738  -0.309725670732
 N1 0.180937 0.314258 0.73415  -0.309725670732
 N1 0.181121 0.814276 0.73433  -0.309725670732
 N1 0.680966 0.314454 0.73428  -0.309725670732
 N1 0.681082 0.814475 0.73448  -0.309725670732
 N1 0.05561 0.136315 0.37595  -0.309725670732
 N1 0.055031 0.636499 0.37622  -0.309725670732
 N1 0.555623 0.136425 0.37612  -0.309725670732
 N1 0.555049 0.636559 0.37635  -0.309725670732
 N1 0.273581 0.053496 0.45501  -0.309725670732
 N1 0.273685 0.553511 0.45500  -0.309725670732
 N1 0.773728 0.053532 0.45503  -0.309725670732
 N1 0.773864 0.553599 0.45506  -0.309725670732
 N1 0.391197 0.262304 0.84259  -0.309725670732
 N1 0.391368 0.762375 0.84249  -0.309725670732
 N1 0.891298 0.262373 0.84265  -0.309725670732
 N1 0.891535 0.762511 0.84252  -0.309725670732
 N1 0.318928 0.185375 0.26601  -0.309725670732
 N1 0.318637 0.6852 0.26566  -0.309725670732
 N1 0.818943 0.18536 0.26600  -0.309725670732
 N1 0.818637 0.685248 0.26561  -0.309725670732
 N1 0.44426 0.36295 0.62379  -0.309725670732
 N1 0.444891 0.862819 0.62362  -0.309725670732
 N1 0.944317 0.363005 0.62387  -0.309725670732
 N1 0.944901 0.862888 0.62363  -0.309725670732
 O1 0.129139 0.350258 0.3418  -0.602048170732
 O1 0.128932 0.850336 0.34171  -0.602048170732
 O1 0.629306 0.350294 0.34209  -0.602048170732
 O1 0.628917 0.850364 0.34177  -0.602048170732
 O1 0.206689 0.302013 0.45006  -0.602048170732
 O1 0.206729 0.801876 0.44959  -0.602048170732
 O1 0.70668 0.302203 0.45051  -0.602048170732
 O1 0.706678 0.802034 0.44978  -0.602048170732
 O1 0.289079 0.485859 0.73378  -0.602048170732
 O1 0.289113 0.985169 0.73345  -0.602048170732
 O1 0.789397 0.486473 0.73409  -0.602048170732
 O1 0.789054 0.985344 0.73349  -0.602048170732
 O1 0.191537 0.07774 0.71495  -0.602048170732
 O1 0.191177 0.578053 0.71475  -0.602048170732
 O1 0.691446 0.077888 0.71492  -0.602048170732
 O1 0.690949 0.578203 0.71467  -0.602048170732
 O1 0.371517 0.147663 0.65795  -0.602048170732
 O1 0.371667 0.64785 0.65785  -0.602048170732
 O1 0.871545 0.147803 0.65799  -0.602048170732
 O1 0.871665 0.648216 0.65786  -0.602048170732
 O1 0.293344 0.197106 0.5510  -0.602048170732
 O1 0.293438 0.697171 0.55089  -0.602048170732
 O1 0.793455 0.197148 0.55  -0.602048170732
 O1 0.793402 0.697305 0.55073  -0.602048170732
 O1 0.210271 0.013061 0.2659  -0.602048170732
 O1 0.209948 0.513202 0.26608  -0.602048170732
 O1 0.710333 0.013161 0.26598  -0.602048170732
 O1 0.710133 0.513316 0.26620  -0.602048170732
 O1 0.308907 0.421711 0.28511  -0.602048170732
 O1 0.309169 0.921613 0.2852  -0.602048170732
 O1 0.808899 0.421687 0.28515  -0.602048170732
 O1 0.809137 0.921628 0.28525  -0.602048170732
