#======================================================================

# CRYSTAL DATA

#----------------------------------------------------------------------

data_VESTA_phase_1


_pd_phase_name                         MOF
_cell_length_a                         15.51100
_cell_length_b                         15.50600
_cell_length_c                         15.52000
_cell_angle_alpha                      74.49000
_cell_angle_beta                       74.47200
_cell_angle_gamma                      74.52700
_symmetry_space_group_name_H-M         "P 1"
_symmetry_Int_Tables_number            1

loop_
_symmetry_equiv_pos_as_xyz
   "x, y, z"

loop_
   _atom_site_label
   _atom_site_fract_x
   _atom_site_fract_y
   _atom_site_fract_z
 _atom_site_charge
 Cu1 0.991716 0.991654 0.42664  0.894161666667
 Cu1 0.426557 0.991598 0.99176  0.894161666667
 Cu1 0.991633 0.426337 0.99176  0.894161666667
 Cu1 0.008401 0.008387 0.57337  0.894161666667
 Cu1 0.00838 0.573674 0.00823  0.894161666667
 Cu1 0.573456 0.008389 0.00818  0.894161666667
 H1 0.99163 0.297535 0.52719  0.117555555556
 H1 0.527933 0.991002 0.29720  0.117555555556
 H1 0.297193 0.527695 0.99134  0.117555555556
 H1 0.702579 0.008981 0.47245  0.117555555556
 H1 0.008916 0.47204 0.70288  0.117555555556
 H1 0.472664 0.702632 0.0083  0.117555555556
 H1 0.008411 0.702572 0.47281  0.117555555556
 H1 0.472174 0.008979 0.70267  0.117555555556
 H1 0.702836 0.472273 0.00870  0.117555555556
 H1 0.297611 0.991026 0.52750  0.117555555556
 H1 0.991025 0.528034 0.29709  0.117555555556
 H1 0.527343 0.297315 0.99161  0.117555555556
 H1 0.977018 0.265296 0.26490  0.117555555556
 H1 0.265378 0.976492 0.265  0.117555555556
 H1 0.264836 0.265054 0.97718  0.117555555556
 H1 0.734662 0.023537 0.73481  0.117555555556
 H1 0.023052 0.734717 0.73512  0.117555555556
 H1 0.735154 0.734952 0.02279  0.117555555556
 C1 0.983457 0.271823 0.40031  -0.06439
 C2 0.988619 0.327159 0.45583  -0.027495
 C3 0.984752 0.172289 0.43862  0.671541666667
 C1 0.400881 0.982883 0.27167  -0.06439
 C2 0.456499 0.988092 0.32687  -0.027495
 C3 0.439061 0.984277 0.17219  0.671541666667
 C1 0.271488 0.400607 0.98340  -0.06439
 C2 0.326788 0.456243 0.98852  -0.027495
 C3 0.172019 0.438896 0.98460  0.671541666667
 C1 0.728195 0.017127 0.5993  -0.06439
 C2 0.672932 0.011899 0.54384  -0.027495
 C3 0.827739 0.015724 0.56113  0.671541666667
 C1 0.016835 0.599161 0.72851  -0.06439
 C2 0.011695 0.543523 0.6732  -0.027495
 C3 0.015555 0.56092 0.82798  0.671541666667
 C1 0.599659 0.728347 0.01645  -0.06439
 C2 0.544064 0.673024 0.01131  -0.027495
 C3 0.561346 0.827815 0.01526  0.671541666667
 C1 0.016605 0.728232 0.59970  -0.06439
 C2 0.011412 0.672926 0.54417  -0.027495
 C3 0.015354 0.827758 0.56139  0.671541666667
 C1 0.599187 0.017119 0.72827  -0.06439
 C2 0.54361 0.011898 0.67303  -0.027495
 C3 0.56097 0.015723 0.82775  0.671541666667
 C1 0.728521 0.599382 0.0166  -0.06439
 C2 0.67323 0.543728 0.01150  -0.027495
 C3 0.827993 0.561106 0.01540  0.671541666667
 C1 0.271916 0.98289 0.4006  -0.06439
 C2 0.32722 0.988107 0.45611  -0.027495
 C3 0.172371 0.984299 0.43887  0.671541666667
 C1 0.98317 0.400878 0.27148  -0.06439
 C2 0.98828 0.456547 0.3267  -0.027495
 C3 0.984448 0.4391 0.17201  0.671541666667
 C1 0.400339 0.271632 0.98353  -0.06439
 C2 0.455944 0.326937 0.98868  -0.027495
 C3 0.438649 0.172167 0.98469  0.671541666667
 C1 0.990852 0.420328 0.41971  -0.06439
 C4 0.997025 0.476244 0.47579  -0.0893833333333
 C2 0.980331 0.308575 0.30817  -0.027495
 C1 0.420326 0.990532 0.41992  -0.06439
 C4 0.476227 0.99692 0.47587  -0.0893833333333
 C2 0.308645 0.979867 0.30842  -0.027495
 C1 0.419823 0.420044 0.99104  -0.06439
 C4 0.475903 0.476027 0.99713  -0.0893833333333
 C2 0.308142 0.308343 0.98049  -0.027495
 C1 0.579825 0.009464 0.57999  -0.06439
 C4 0.523959 0.00307 0.52400  -0.0893833333333
 C2 0.691427 0.020149 0.69155  -0.027495
 C1 0.00913 0.579766 0.58027  -0.06439
 C4 0.002939 0.523875 0.52418  -0.0893833333333
 C2 0.019716 0.69146 0.69184  -0.027495
 C1 0.580195 0.579911 0.00898  -0.06439
 C4 0.524125 0.523912 0.00290  -0.0893833333333
 C2 0.691856 0.691648 0.01950  -0.027495
 O1 0.978238 0.125556 0.38497  -0.556218333333
 O1 0.993776 0.141271 0.52155  -0.556218333333
 O1 0.385202 0.977953 0.12559  -0.556218333333
 O1 0.522063 0.99324 0.14106  -0.556218333333
 O1 0.125451 0.384998 0.97823  -0.556218333333
 O1 0.141157 0.521947 0.99336  -0.556218333333
 O1 0.874447 0.022062 0.61487  -0.556218333333
 O1 0.858795 0.006754 0.47818  -0.556218333333
 O1 0.021945 0.614859 0.87445  -0.556218333333
 O1 0.006679 0.477887 0.85895  -0.556218333333
 O1 0.615082 0.874548 0.021  -0.556218333333
 O1 0.47831 0.858771 0.00648  -0.556218333333
 O1 0.021803 0.874493 0.61507  -0.556218333333
 O1 0.006427 0.858764 0.47844  -0.556218333333
 O1 0.614819 0.022037 0.8743  -0.556218333333
 O1 0.477969 0.006751 0.85886  -0.556218333333
 O1 0.874558 0.61501 0.0217  -0.556218333333
 O1 0.858858 0.478053 0.00664  -0.556218333333
 O1 0.12565 0.977989 0.38513  -0.556218333333
 O1 0.141333 0.993253 0.52183  -0.556218333333
 O1 0.97807 0.38515 0.12555  -0.556218333333
 O1 0.993321 0.522134 0.14104  -0.556218333333
 O1 0.384903 0.125435 0.97827  -0.556218333333
 O1 0.521695 0.141218 0.99343  -0.556218333333
